
 OpenBabel09122222393D

 32 35  0  0  1  0  0  0  0  0999 V2000
    5.4730   -4.8530    3.7520 N   0  0  0  0  0  0  0  0  0  0  0  0
    4.4040   -3.9780    3.9250 C   0  0  2  0  0  3  0  0  0  0  0  0
    4.4840   -2.7570    4.0290 O   0  0  0  0  0  0  0  0  0  0  0  0
    3.0640   -4.5610    4.0800 C   0  0  0  0  0  0  0  0  0  0  0  0
    2.9900   -5.9620    4.1210 C   0  0  0  0  0  3  0  0  0  0  0  0
    1.7530   -6.5880    4.2690 C   0  0  0  0  0  3  0  0  0  0  0  0
    0.6020   -5.8110    4.3920 C   0  0  0  0  0  0  0  0  0  0  0  0
   -0.9280   -6.5800    4.5590 Cl  0  0  0  0  0  0  0  0  0  0  0  0
    0.6760   -4.4170    4.3790 C   0  0  0  0  0  3  0  0  0  0  0  0
    1.9150   -3.7860    4.2320 C   0  0  0  0  0  0  0  0  0  0  0  0
    1.9490   -2.0600    4.2130 Cl  0  0  0  0  0  0  0  0  0  0  0  0
    6.8450   -4.3720    4.1090 C   0  0  2  0  0  3  0  0  0  0  0  0
    5.9500   -2.1360    3.9850 O   0  0  0  0  0  0  0  0  0  0  0  0
    6.9790   -2.8130    4.2720 C   0  0  0  0  0  0  0  0  0  0  0  0
    8.1430   -2.3920    4.5580 O   0  0  0  0  0  0  0  0  0  0  0  0
    7.9450   -4.9340    3.1900 C   0  0  0  0  0  2  0  0  0  0  0  0
    8.2920   -4.0100    2.0380 C   0  0  0  0  0  0  0  0  0  0  0  0
    8.5670   -4.5290    0.7650 C   0  0  0  0  0  3  0  0  0  0  0  0
    8.8520   -3.6740   -0.2990 C   0  0  0  0  0  3  0  0  0  0  0  0
    8.8650   -2.2930   -0.1020 C   0  0  0  0  0  3  0  0  0  0  0  0
    8.5940   -1.7670    1.1600 C   0  0  0  0  0  3  0  0  0  0  0  0
    8.3100   -2.6220    2.2250 C   0  0  0  0  0  3  0  0  0  0  0  0
    5.3530   -6.1820    3.1550 C   0  0  0  0  0  2  0  0  0  0  0  0
    5.0590   -6.2100    1.6710 C   0  0  0  0  0  0  0  0  0  0  0  0
    3.8020   -6.5920    1.1830 C   0  0  0  0  0  3  0  0  0  0  0  0
    3.5320   -6.6070   -0.1870 C   0  0  0  0  0  3  0  0  0  0  0  0
    4.5240   -6.2520   -1.1000 C   0  0  0  0  0  3  0  0  0  0  0  0
    5.7880   -5.8880   -0.6260 C   0  0  0  0  0  0  0  0  0  0  0  0
    6.0640   -5.8750    0.7490 C   0  0  0  0  0  3  0  0  0  0  0  0
    6.8380   -5.5060   -1.5790 N   0  0  0  0  0  0  0  0  0  0  0  0
    6.7500   -4.3960   -2.1240 O   0  0  0  0  0  0  0  0  0  0  0  0
    7.7490   -6.3200   -1.7930 O   0  0  0  0  0  0  0  0  0  0  0  0
  1  2  1  0  0  0  0
  1 12  1  0  0  0  0
  2  3  1  0  0  0  0
  2  4  1  1  0  0  0
  4  5  2  0  0  0  0
  4 10  1  0  0  0  0
  5  6  1  0  0  0  0
  6  7  2  0  0  0  0
  7  8  1  0  0  0  0
  9  7  1  0  0  0  0
 10  9  2  0  0  0  0
 11 10  1  0  0  0  0
 12 16  1  6  0  0  0
 12 14  1  0  0  0  0
 13  3  1  0  0  0  0
 13 14  1  0  0  0  0
 14 15  2  0  0  0  0
 17 22  1  0  0  0  0
 17 16  1  0  0  0  0
 18 17  2  0  0  0  0
 19 20  2  0  0  0  0
 19 18  1  0  0  0  0
 20 21  1  0  0  0  0
 21 22  2  0  0  0  0
 23  1  1  0  0  0  0
 24 23  1  0  0  0  0
 25 24  1  0  0  0  0
 26 25  2  0  0  0  0
 27 28  2  0  0  0  0
 27 26  1  0  0  0  0
 28 29  1  0  0  0  0
 29 24  2  0  0  0  0
 30 28  1  0  0  0  0
 31 30  2  0  0  0  0
 32 30  2  0  0  0  0
M  END
>  <minimizedAffinity>
9.64311409

$$$$
