
 OpenBabel09122222393D

 28 30  0  0  0  0  0  0  0  0999 V2000
    4.6120   -3.1170    5.4430 C   0  0  0  0  0  0  0  0  0  0  0  0
    5.7500   -2.9640    6.2710 C   0  0  0  0  0  0  0  0  0  0  0  0
    5.7940   -2.0510    7.3240 C   0  0  0  0  0  3  0  0  0  0  0  0
    4.6940   -1.2400    7.5580 C   0  0  0  0  0  3  0  0  0  0  0  0
    3.5520   -1.3920    6.7710 C   0  0  0  0  0  3  0  0  0  0  0  0
    3.4730   -2.3460    5.7260 C   0  0  0  0  0  0  0  0  0  0  0  0
    4.9210   -6.0310    3.3260 O   0  0  0  0  0  0  0  0  0  0  0  0
    4.5630   -5.4180    4.3370 C   0  0  0  0  0  0  0  0  0  0  0  0
    4.7680   -4.0620    4.4070 N   0  0  0  0  0  0  0  0  0  0  0  0
    5.0790   -3.6730    3.5250 H   0  0  0  0  0  0  0  0  0  0  0  0
    3.7100   -6.1320    5.3120 C   0  0  0  0  0  0  0  0  0  0  0  0
    3.8570   -5.9380    6.6910 C   0  0  0  0  0  3  0  0  0  0  0  0
    2.9850   -6.5680    7.5800 C   0  0  0  0  0  3  0  0  0  0  0  0
    1.9550   -7.3760    7.0950 C   0  0  0  0  0  3  0  0  0  0  0  0
    1.7920   -7.5520    5.7200 C   0  0  0  0  0  3  0  0  0  0  0  0
    2.6610   -6.9210    4.8280 C   0  0  0  0  0  3  0  0  0  0  0  0
    2.1100   -2.5500    5.1100 C   0  0  0  0  0  0  0  0  0  0  0  0
    1.9100   -3.6690    4.5390 O   0  0  0  0  0  0  0  0  0  0  0  0
    1.2950   -1.5780    5.1490 O   0  0  0  0  0  1  0  0  0  0  0  0
    6.8690   -3.7370    6.0430 O   0  0  0  0  0  0  0  0  0  0  0  0
    8.0450   -2.9280    6.1430 C   0  0  0  0  0  2  0  0  0  0  0  0
    8.4730   -2.5540    4.7450 C   0  0  0  0  0  0  0  0  0  0  0  0
    8.1480   -3.3830    3.6600 C   0  0  0  0  0  3  0  0  0  0  0  0
    8.5640   -3.0530    2.3680 C   0  0  0  0  0  3  0  0  0  0  0  0
    9.3140   -1.8990    2.1560 C   0  0  0  0  0  0  0  0  0  0  0  0
    9.8260   -1.4910    0.5640 Cl  0  0  0  0  0  0  0  0  0  0  0  0
    9.6570   -1.0740    3.2250 C   0  0  0  0  0  3  0  0  0  0  0  0
    9.2420   -1.4040    4.5180 C   0  0  0  0  0  3  0  0  0  0  0  0
  1  6  2  0  0  0  0
  1  2  1  0  0  0  0
  2  3  2  0  0  0  0
  3  4  1  0  0  0  0
  5  4  2  0  0  0  0
  6  5  1  0  0  0  0
  7  8  2  0  0  0  0
  8  9  1  0  0  0  0
  8 11  1  0  0  0  0
  9  1  1  0  0  0  0
 10  9  1  0  0  0  0
 11 12  1  0  0  0  0
 12 13  2  0  0  0  0
 14 13  1  0  0  0  0
 15 14  2  0  0  0  0
 16 11  2  0  0  0  0
 16 15  1  0  0  0  0
 17 19  1  0  0  0  0
 17  6  1  0  0  0  0
 18 17  2  0  0  0  0
 20 21  1  0  0  0  0
 20  2  1  0  0  0  0
 22 21  1  0  0  0  0
 23 22  2  0  0  0  0
 24 23  1  0  0  0  0
 25 24  2  0  0  0  0
 25 27  1  0  0  0  0
 26 25  1  0  0  0  0
 27 28  2  0  0  0  0
 28 22  1  0  0  0  0
M  END
>  <minimizedAffinity>
-5.60995579

$$$$
