
 OpenBabel09122222153D

 28 30  0  0  0  0  0  0  0  0999 V2000
    4.5570   -5.5730    4.7980 C   0  0  0  0  0  0  0  0  0  0  0  0
    4.9510   -5.7810    3.4540 C   0  0  0  0  0  0  0  0  0  0  0  0
    4.3520   -6.7400    2.6370 C   0  0  0  0  0  3  0  0  0  0  0  0
    3.3500   -7.5400    3.1620 C   0  0  0  0  0  3  0  0  0  0  0  0
    2.9280   -7.3340    4.4760 C   0  0  0  0  0  3  0  0  0  0  0  0
    3.4930   -6.3340    5.3060 C   0  0  0  0  0  0  0  0  0  0  0  0
    5.9940   -2.5790    6.2290 O   0  0  0  0  0  0  0  0  0  0  0  0
    5.0910   -3.2510    5.7170 C   0  0  0  0  0  0  0  0  0  0  0  0
    5.3040   -4.5860    5.4770 N   0  0  0  0  0  0  0  0  0  0  0  0
    6.1650   -4.9210    5.8910 H   0  0  0  0  0  0  0  0  0  0  0  0
    3.7470   -2.6410    5.6190 C   0  0  0  0  0  0  0  0  0  0  0  0
    3.2200   -1.8660    6.6590 C   0  0  0  0  0  3  0  0  0  0  0  0
    1.9810   -1.2410    6.5030 C   0  0  0  0  0  3  0  0  0  0  0  0
    1.2780   -1.3740    5.3050 C   0  0  0  0  0  3  0  0  0  0  0  0
    1.8120   -2.1260    4.2590 C   0  0  0  0  0  3  0  0  0  0  0  0
    3.0510   -2.7500    4.4110 C   0  0  0  0  0  3  0  0  0  0  0  0
    2.7910   -6.0800    6.6180 C   0  0  0  0  0  0  0  0  0  0  0  0
    3.5200   -5.6850    7.5820 O   0  0  0  0  0  1  0  0  0  0  0  0
    1.5500   -6.3400    6.6810 O   0  0  0  0  0  0  0  0  0  0  0  0
    5.9660   -5.0180    2.9140 O   0  0  0  0  0  0  0  0  0  0  0  0
    6.5080   -5.6780    1.7650 C   0  0  0  0  0  2  0  0  0  0  0  0
    7.6270   -4.8220    1.2230 C   0  0  0  0  0  0  0  0  0  0  0  0
    8.1420   -3.7630    1.9860 C   0  0  0  0  0  3  0  0  0  0  0  0
    9.1600   -2.9540    1.4780 C   0  0  0  0  0  3  0  0  0  0  0  0
    9.6620   -3.1930    0.2010 C   0  0  0  0  0  0  0  0  0  0  0  0
   10.9170   -2.1980   -0.4280 Cl  0  0  0  0  0  0  0  0  0  0  0  0
    9.1500   -4.2320   -0.5750 C   0  0  0  0  0  3  0  0  0  0  0  0
    8.1310   -5.0420   -0.0670 C   0  0  0  0  0  3  0  0  0  0  0  0
  1  6  1  0  0  0  0
  1  9  1  0  0  0  0
  2  1  2  0  0  0  0
  3  4  2  0  0  0  0
  3  2  1  0  0  0  0
  4  5  1  0  0  0  0
  5  6  2  0  0  0  0
  6 17  1  0  0  0  0
  8  7  2  0  0  0  0
  9  8  1  0  0  0  0
  9 10  1  0  0  0  0
 11  8  1  0  0  0  0
 11 12  1  0  0  0  0
 13 12  2  0  0  0  0
 14 13  1  0  0  0  0
 15 16  1  0  0  0  0
 15 14  2  0  0  0  0
 16 11  2  0  0  0  0
 17 19  2  0  0  0  0
 17 18  1  0  0  0  0
 20  2  1  0  0  0  0
 21 20  1  0  0  0  0
 22 21  1  0  0  0  0
 22 23  1  0  0  0  0
 24 23  2  0  0  0  0
 25 24  1  0  0  0  0
 26 25  1  0  0  0  0
 27 28  1  0  0  0  0
 27 25  2  0  0  0  0
 28 22  2  0  0  0  0
M  END
>  <minimizedAffinity>
-6.54559517

$$$$

 OpenBabel09122222153D

 28 30  0  0  0  0  0  0  0  0999 V2000
    5.2310   -4.8730    4.3160 C   0  0  0  0  0  0  0  0  0  0  0  0
    5.8260   -4.5590    3.0700 C   0  0  0  0  0  0  0  0  0  0  0  0
    5.5150   -5.2450    1.8960 C   0  0  0  0  0  3  0  0  0  0  0  0
    4.6080   -6.2920    1.9500 C   0  0  0  0  0  3  0  0  0  0  0  0
    3.9900   -6.6020    3.1620 C   0  0  0  0  0  3  0  0  0  0  0  0
    4.2600   -5.8860    4.3550 C   0  0  0  0  0  0  0  0  0  0  0  0
    5.9440   -2.3880    6.8440 O   0  0  0  0  0  0  0  0  0  0  0  0
    5.2480   -2.9400    5.9840 C   0  0  0  0  0  0  0  0  0  0  0  0
    5.6990   -4.0960    5.3970 N   0  0  0  0  0  0  0  0  0  0  0  0
    6.5260   -4.4630    5.8530 H   0  0  0  0  0  0  0  0  0  0  0  0
    3.8580   -2.4630    5.8100 C   0  0  0  0  0  0  0  0  0  0  0  0
    3.2160   -1.7110    6.8010 C   0  0  0  0  0  3  0  0  0  0  0  0
    1.9320   -1.2120    6.5740 C   0  0  0  0  0  3  0  0  0  0  0  0
    1.2980   -1.4450    5.3520 C   0  0  0  0  0  3  0  0  0  0  0  0
    1.9460   -2.1730    4.3550 C   0  0  0  0  0  3  0  0  0  0  0  0
    3.2300   -2.6730    4.5780 C   0  0  0  0  0  3  0  0  0  0  0  0
    3.3600   -6.1840    5.5300 C   0  0  0  0  0  0  0  0  0  0  0  0
    2.1090   -6.1590    5.3030 O   0  0  0  0  0  0  0  0  0  0  0  0
    3.9080   -6.3690    6.6590 O   0  0  0  0  0  1  0  0  0  0  0  0
    6.7530   -3.5400    2.9940 O   0  0  0  0  0  0  0  0  0  0  0  0
    8.0350   -4.0780    2.6520 C   0  0  0  0  0  2  0  0  0  0  0  0
    8.6940   -3.1270    1.6820 C   0  0  0  0  0  0  0  0  0  0  0  0
    9.2750   -3.6130    0.5000 C   0  0  0  0  0  3  0  0  0  0  0  0
    9.9080   -2.7390   -0.3880 C   0  0  0  0  0  3  0  0  0  0  0  0
    9.9700   -1.3800   -0.0940 C   0  0  0  0  0  0  0  0  0  0  0  0
   10.7480   -0.3010   -1.1870 Cl  0  0  0  0  0  0  0  0  0  0  0  0
    9.4100   -0.8850    1.0820 C   0  0  0  0  0  3  0  0  0  0  0  0
    8.7780   -1.7580    1.9720 C   0  0  0  0  0  3  0  0  0  0  0  0
  1  6  1  0  0  0  0
  1  9  1  0  0  0  0
  2  1  2  0  0  0  0
  3  4  2  0  0  0  0
  3  2  1  0  0  0  0
  4  5  1  0  0  0  0
  5  6  2  0  0  0  0
  6 17  1  0  0  0  0
  8  7  2  0  0  0  0
  9 10  1  0  0  0  0
  9  8  1  0  0  0  0
 11  8  1  0  0  0  0
 11 12  1  0  0  0  0
 13 12  2  0  0  0  0
 14 13  1  0  0  0  0
 15 16  1  0  0  0  0
 15 14  2  0  0  0  0
 16 11  2  0  0  0  0
 17 19  1  0  0  0  0
 18 17  2  0  0  0  0
 20  2  1  0  0  0  0
 21 20  1  0  0  0  0
 22 28  1  0  0  0  0
 22 21  1  0  0  0  0
 23 22  2  0  0  0  0
 24 25  2  0  0  0  0
 24 23  1  0  0  0  0
 25 27  1  0  0  0  0
 26 25  1  0  0  0  0
 27 28  2  0  0  0  0
M  END
>  <minimizedAffinity>
-6.36512423

$$$$

 OpenBabel09122222153D

 28 30  0  0  0  0  0  0  0  0999 V2000
    8.6420   -4.2610    1.1850 C   0  0  0  0  0  0  0  0  0  0  0  0
    7.3290   -4.7380    1.4180 C   0  0  0  0  0  0  0  0  0  0  0  0
    6.5030   -5.1950    0.3910 C   0  0  0  0  0  3  0  0  0  0  0  0
    6.9710   -5.1590   -0.9140 C   0  0  0  0  0  3  0  0  0  0  0  0
    8.2710   -4.7180   -1.1640 C   0  0  0  0  0  3  0  0  0  0  0  0
    9.1390   -4.2930   -0.1270 C   0  0  0  0  0  0  0  0  0  0  0  0
   10.5860   -2.5540    3.7110 O   0  0  0  0  0  0  0  0  0  0  0  0
    9.9550   -2.6350    2.6510 C   0  0  0  0  0  0  0  0  0  0  0  0
    9.3100   -3.8060    2.3420 N   0  0  0  0  0  0  0  0  0  0  0  0
    9.3050   -4.4610    3.1150 H   0  0  0  0  0  0  0  0  0  0  0  0
    9.7210   -1.3870    1.8900 C   0  0  0  0  0  0  0  0  0  0  0  0
    9.1850   -0.2480    2.5030 C   0  0  0  0  0  3  0  0  0  0  0  0
    9.0500    0.9360    1.7760 C   0  0  0  0  0  3  0  0  0  0  0  0
    9.4660    0.9890    0.4450 C   0  0  0  0  0  3  0  0  0  0  0  0
   10.0230   -0.1370   -0.1610 C   0  0  0  0  0  3  0  0  0  0  0  0
   10.1620   -1.3220    0.5640 C   0  0  0  0  0  3  0  0  0  0  0  0
   10.5780   -4.0570   -0.5180 C   0  0  0  0  0  0  0  0  0  0  0  0
   10.7770   -3.5770   -1.6790 O   0  0  0  0  0  0  0  0  0  0  0  0
   11.4770   -4.4110    0.3050 O   0  0  0  0  0  1  0  0  0  0  0  0
    6.8280   -4.7580    2.7030 O   0  0  0  0  0  0  0  0  0  0  0  0
    5.4210   -5.0230    2.6700 C   0  0  0  0  0  2  0  0  0  0  0  0
    4.7630   -4.1740    3.7300 C   0  0  0  0  0  0  0  0  0  0  0  0
    3.5010   -3.6050    3.4990 C   0  0  0  0  0  3  0  0  0  0  0  0
    2.9000   -2.7980    4.4680 C   0  0  0  0  0  3  0  0  0  0  0  0
    3.5620   -2.5490    5.6680 C   0  0  0  0  0  0  0  0  0  0  0  0
    2.8220   -1.5570    6.8640 Cl  0  0  0  0  0  0  0  0  0  0  0  0
    4.8220   -3.0950    5.9060 C   0  0  0  0  0  3  0  0  0  0  0  0
    5.4240   -3.9020    4.9370 C   0  0  0  0  0  3  0  0  0  0  0  0
  1  2  1  0  0  0  0
  1  9  1  0  0  0  0
  2 20  1  0  0  0  0
  3  2  2  0  0  0  0
  4  3  1  0  0  0  0
  5  4  2  0  0  0  0
  5  6  1  0  0  0  0
  6  1  2  0  0  0  0
  8  7  2  0  0  0  0
  9  8  1  0  0  0  0
  9 10  1  0  0  0  0
 11 12  1  0  0  0  0
 11  8  1  0  0  0  0
 13 12  2  0  0  0  0
 14 13  1  0  0  0  0
 15 14  2  0  0  0  0
 15 16  1  0  0  0  0
 16 11  2  0  0  0  0
 17  6  1  0  0  0  0
 17 19  1  0  0  0  0
 18 17  2  0  0  0  0
 21 20  1  0  0  0  0
 21 22  1  0  0  0  0
 22 28  1  0  0  0  0
 23 22  2  0  0  0  0
 23 24  1  0  0  0  0
 24 25  2  0  0  0  0
 25 27  1  0  0  0  0
 25 26  1  0  0  0  0
 28 27  2  0  0  0  0
M  END
>  <minimizedAffinity>
-5.98214912

$$$$

 OpenBabel09122222153D

 28 30  0  0  0  0  0  0  0  0999 V2000
    7.9140   -2.3390    6.0720 C   0  0  0  0  0  0  0  0  0  0  0  0
    6.6800   -2.9320    5.7060 C   0  0  0  0  0  0  0  0  0  0  0  0
    5.4640   -2.5350    6.2610 C   0  0  0  0  0  3  0  0  0  0  0  0
    5.4570   -1.5400    7.2260 C   0  0  0  0  0  3  0  0  0  0  0  0
    6.6580   -0.9240    7.5820 C   0  0  0  0  0  3  0  0  0  0  0  0
    7.8970   -1.2830    6.9960 C   0  0  0  0  0  0  0  0  0  0  0  0
   10.5630   -3.3970    3.8500 O   0  0  0  0  0  0  0  0  0  0  0  0
    9.6570   -2.6470    4.2320 C   0  0  0  0  0  0  0  0  0  0  0  0
    9.0410   -2.8990    5.4330 N   0  0  0  0  0  0  0  0  0  0  0  0
    9.5090   -3.6230    5.9640 H   0  0  0  0  0  0  0  0  0  0  0  0
    9.4550   -1.3790    3.4980 C   0  0  0  0  0  0  0  0  0  0  0  0
    9.9420   -0.1630    3.9930 C   0  0  0  0  0  3  0  0  0  0  0  0
    9.8010    1.0020    3.2370 C   0  0  0  0  0  3  0  0  0  0  0  0
    9.1930    0.9530    1.9820 C   0  0  0  0  0  3  0  0  0  0  0  0
    8.7290   -0.2620    1.4770 C   0  0  0  0  0  3  0  0  0  0  0  0
    8.8690   -1.4300    2.2280 C   0  0  0  0  0  3  0  0  0  0  0  0
    9.0690   -0.3860    7.3130 C   0  0  0  0  0  0  0  0  0  0  0  0
    8.8590    0.8660    7.2360 O   0  0  0  0  0  0  0  0  0  0  0  0
   10.1830   -0.9410    7.5660 O   0  0  0  0  0  1  0  0  0  0  0  0
    6.6610   -3.9440    4.7690 O   0  0  0  0  0  0  0  0  0  0  0  0
    5.3320   -4.1090    4.2620 C   0  0  0  0  0  2  0  0  0  0  0  0
    5.4090   -4.9800    3.0320 C   0  0  0  0  0  0  0  0  0  0  0  0
    6.4990   -4.8700    2.1540 C   0  0  0  0  0  3  0  0  0  0  0  0
    6.5610   -5.6560    1.0010 C   0  0  0  0  0  3  0  0  0  0  0  0
    5.5300   -6.5480    0.7160 C   0  0  0  0  0  0  0  0  0  0  0  0
    5.6050   -7.5180   -0.7040 Cl  0  0  0  0  0  0  0  0  0  0  0  0
    4.4350   -6.6570    1.5700 C   0  0  0  0  0  3  0  0  0  0  0  0
    4.3710   -5.8710    2.7230 C   0  0  0  0  0  3  0  0  0  0  0  0
  1  6  1  0  0  0  0
  2  1  2  0  0  0  0
  2  3  1  0  0  0  0
  3  4  2  0  0  0  0
  4  5  1  0  0  0  0
  6 17  1  0  0  0  0
  6  5  2  0  0  0  0
  7  8  2  0  0  0  0
  8  9  1  0  0  0  0
  9 10  1  0  0  0  0
  9  1  1  0  0  0  0
 11 12  1  0  0  0  0
 11  8  1  0  0  0  0
 13 12  2  0  0  0  0
 14 13  1  0  0  0  0
 15 14  2  0  0  0  0
 15 16  1  0  0  0  0
 16 11  2  0  0  0  0
 17 19  1  0  0  0  0
 18 17  2  0  0  0  0
 20  2  1  0  0  0  0
 21 20  1  0  0  0  0
 22 21  1  0  0  0  0
 23 22  2  0  0  0  0
 24 23  1  0  0  0  0
 25 24  2  0  0  0  0
 25 27  1  0  0  0  0
 26 25  1  0  0  0  0
 27 28  2  0  0  0  0
 28 22  1  0  0  0  0
M  END
>  <minimizedAffinity>
-5.9365077

$$$$

 OpenBabel09122222153D

 28 30  0  0  0  0  0  0  0  0999 V2000
    8.9280   -2.3950    1.2020 C   0  0  0  0  0  0  0  0  0  0  0  0
    9.5520   -3.3780    0.3960 C   0  0  0  0  0  0  0  0  0  0  0  0
   10.6100   -3.0840   -0.4620 C   0  0  0  0  0  3  0  0  0  0  0  0
   11.0570   -1.7750   -0.5540 C   0  0  0  0  0  3  0  0  0  0  0  0
   10.4750   -0.7940    0.2500 C   0  0  0  0  0  3  0  0  0  0  0  0
    9.4290   -1.0840    1.1610 C   0  0  0  0  0  0  0  0  0  0  0  0
    6.6880   -3.7800    3.6790 O   0  0  0  0  0  0  0  0  0  0  0  0
    7.7380   -3.2570    3.2900 C   0  0  0  0  0  0  0  0  0  0  0  0
    7.8500   -2.8740    1.9760 N   0  0  0  0  0  0  0  0  0  0  0  0
    6.9700   -2.9380    1.4790 H   0  0  0  0  0  0  0  0  0  0  0  0
    8.7240   -2.8450    4.3130 C   0  0  0  0  0  0  0  0  0  0  0  0
   10.1010   -2.9560    4.0850 C   0  0  0  0  0  3  0  0  0  0  0  0
   11.0050   -2.4870    5.0400 C   0  0  0  0  0  3  0  0  0  0  0  0
   10.5360   -1.8910    6.2120 C   0  0  0  0  0  3  0  0  0  0  0  0
    9.1650   -1.7580    6.4300 C   0  0  0  0  0  3  0  0  0  0  0  0
    8.2590   -2.2240    5.4770 C   0  0  0  0  0  3  0  0  0  0  0  0
    9.0520    0.0210    2.1180 C   0  0  0  0  0  0  0  0  0  0  0  0
    8.3550    0.9700    1.6370 O   0  0  0  0  0  0  0  0  0  0  0  0
    9.5080   -0.0430    3.3000 O   0  0  0  0  0  1  0  0  0  0  0  0
    9.1070   -4.6840    0.4460 O   0  0  0  0  0  0  0  0  0  0  0  0
    8.1620   -4.9130   -0.6040 C   0  0  0  0  0  2  0  0  0  0  0  0
    6.9970   -5.6750   -0.0220 C   0  0  0  0  0  0  0  0  0  0  0  0
    5.7480   -5.6580   -0.6630 C   0  0  0  0  0  3  0  0  0  0  0  0
    4.6610   -6.3410   -0.1140 C   0  0  0  0  0  3  0  0  0  0  0  0
    4.8140   -7.0360    1.0830 C   0  0  0  0  0  0  0  0  0  0  0  0
    3.4750   -7.8800    1.7610 Cl  0  0  0  0  0  0  0  0  0  0  0  0
    6.0430   -7.0500    1.7390 C   0  0  0  0  0  3  0  0  0  0  0  0
    7.1310   -6.3660    1.1910 C   0  0  0  0  0  3  0  0  0  0  0  0
  1  9  1  0  0  0  0
  2 20  1  0  0  0  0
  2  1  2  0  0  0  0
  3  2  1  0  0  0  0
  4  3  2  0  0  0  0
  4  5  1  0  0  0  0
  5  6  2  0  0  0  0
  6  1  1  0  0  0  0
  6 17  1  0  0  0  0
  8  7  2  0  0  0  0
  8 11  1  0  0  0  0
  9  8  1  0  0  0  0
 10  9  1  0  0  0  0
 11 16  1  0  0  0  0
 12 11  2  0  0  0  0
 12 13  1  0  0  0  0
 13 14  2  0  0  0  0
 14 15  1  0  0  0  0
 16 15  2  0  0  0  0
 17 19  1  0  0  0  0
 18 17  2  0  0  0  0
 21 22  1  0  0  0  0
 21 20  1  0  0  0  0
 22 28  1  0  0  0  0
 23 24  1  0  0  0  0
 23 22  2  0  0  0  0
 24 25  2  0  0  0  0
 25 27  1  0  0  0  0
 25 26  1  0  0  0  0
 28 27  2  0  0  0  0
M  END
>  <minimizedAffinity>
-5.72307491

$$$$

 OpenBabel09122222153D

 28 30  0  0  0  0  0  0  0  0999 V2000
    5.5310   -5.5850    2.1720 C   0  0  0  0  0  0  0  0  0  0  0  0
    6.8360   -5.1880    1.7910 C   0  0  0  0  0  0  0  0  0  0  0  0
    7.8570   -6.1060    1.5430 C   0  0  0  0  0  3  0  0  0  0  0  0
    7.5970   -7.4590    1.6970 C   0  0  0  0  0  3  0  0  0  0  0  0
    6.3110   -7.8730    2.0460 C   0  0  0  0  0  3  0  0  0  0  0  0
    5.2500   -6.9570    2.2570 C   0  0  0  0  0  0  0  0  0  0  0  0
    3.2520   -3.1050    3.4850 O   0  0  0  0  0  0  0  0  0  0  0  0
    4.1350   -3.9660    3.5670 C   0  0  0  0  0  0  0  0  0  0  0  0
    4.6450   -4.5140    2.4170 N   0  0  0  0  0  0  0  0  0  0  0  0
    4.3270   -4.0320    1.5840 H   0  0  0  0  0  0  0  0  0  0  0  0
    4.7690   -4.1810    4.8870 C   0  0  0  0  0  0  0  0  0  0  0  0
    5.9430   -3.5110    5.2490 C   0  0  0  0  0  3  0  0  0  0  0  0
    6.4730   -3.6780    6.5300 C   0  0  0  0  0  3  0  0  0  0  0  0
    5.8210   -4.4960    7.4550 C   0  0  0  0  0  3  0  0  0  0  0  0
    4.6370   -5.1450    7.1030 C   0  0  0  0  0  3  0  0  0  0  0  0
    4.1040   -4.9790    5.8240 C   0  0  0  0  0  3  0  0  0  0  0  0
    3.8720   -7.5550    2.4080 C   0  0  0  0  0  0  0  0  0  0  0  0
    3.2770   -7.8810    1.3320 O   0  0  0  0  0  0  0  0  0  0  0  0
    3.3870   -7.6270    3.5780 O   0  0  0  0  0  1  0  0  0  0  0  0
    7.1310   -3.8470    1.6590 O   0  0  0  0  0  0  0  0  0  0  0  0
    8.4580   -3.5940    2.1300 C   0  0  0  0  0  2  0  0  0  0  0  0
    9.1530   -2.7180    1.1160 C   0  0  0  0  0  0  0  0  0  0  0  0
    9.8930   -3.2950    0.0720 C   0  0  0  0  0  3  0  0  0  0  0  0
   10.5580   -2.4870   -0.8540 C   0  0  0  0  0  3  0  0  0  0  0  0
   10.4930   -1.1010   -0.7350 C   0  0  0  0  0  0  0  0  0  0  0  0
   11.3100   -0.1040   -1.8760 Cl  0  0  0  0  0  0  0  0  0  0  0  0
    9.7740   -0.5150    0.3040 C   0  0  0  0  0  3  0  0  0  0  0  0
    9.1090   -1.3220    1.2310 C   0  0  0  0  0  3  0  0  0  0  0  0
  1  6  1  0  0  0  0
  1  9  1  0  0  0  0
  2  1  2  0  0  0  0
  3  4  2  0  0  0  0
  3  2  1  0  0  0  0
  4  5  1  0  0  0  0
  5  6  2  0  0  0  0
  6 17  1  0  0  0  0
  7  8  2  0  0  0  0
  8 11  1  0  0  0  0
  9  8  1  0  0  0  0
 10  9  1  0  0  0  0
 11 12  2  0  0  0  0
 11 16  1  0  0  0  0
 12 13  1  0  0  0  0
 13 14  2  0  0  0  0
 15 14  1  0  0  0  0
 16 15  2  0  0  0  0
 17 19  1  0  0  0  0
 18 17  2  0  0  0  0
 20  2  1  0  0  0  0
 20 21  1  0  0  0  0
 22 28  1  0  0  0  0
 22 21  1  0  0  0  0
 23 22  2  0  0  0  0
 24 25  2  0  0  0  0
 24 23  1  0  0  0  0
 25 27  1  0  0  0  0
 26 25  1  0  0  0  0
 27 28  2  0  0  0  0
M  END
>  <minimizedAffinity>
-5.67388058

$$$$

 OpenBabel09122222153D

 28 30  0  0  0  0  0  0  0  0999 V2000
    4.6120   -3.1170    5.4430 C   0  0  0  0  0  0  0  0  0  0  0  0
    5.7500   -2.9640    6.2710 C   0  0  0  0  0  0  0  0  0  0  0  0
    5.7940   -2.0510    7.3240 C   0  0  0  0  0  3  0  0  0  0  0  0
    4.6940   -1.2400    7.5580 C   0  0  0  0  0  3  0  0  0  0  0  0
    3.5520   -1.3920    6.7710 C   0  0  0  0  0  3  0  0  0  0  0  0
    3.4730   -2.3460    5.7260 C   0  0  0  0  0  0  0  0  0  0  0  0
    4.9210   -6.0310    3.3260 O   0  0  0  0  0  0  0  0  0  0  0  0
    4.5630   -5.4180    4.3370 C   0  0  0  0  0  0  0  0  0  0  0  0
    4.7680   -4.0620    4.4070 N   0  0  0  0  0  0  0  0  0  0  0  0
    5.0790   -3.6730    3.5250 H   0  0  0  0  0  0  0  0  0  0  0  0
    3.7100   -6.1320    5.3120 C   0  0  0  0  0  0  0  0  0  0  0  0
    3.8570   -5.9380    6.6910 C   0  0  0  0  0  3  0  0  0  0  0  0
    2.9850   -6.5680    7.5800 C   0  0  0  0  0  3  0  0  0  0  0  0
    1.9550   -7.3760    7.0950 C   0  0  0  0  0  3  0  0  0  0  0  0
    1.7920   -7.5520    5.7200 C   0  0  0  0  0  3  0  0  0  0  0  0
    2.6610   -6.9210    4.8280 C   0  0  0  0  0  3  0  0  0  0  0  0
    2.1100   -2.5500    5.1100 C   0  0  0  0  0  0  0  0  0  0  0  0
    1.9100   -3.6690    4.5390 O   0  0  0  0  0  0  0  0  0  0  0  0
    1.2950   -1.5780    5.1490 O   0  0  0  0  0  1  0  0  0  0  0  0
    6.8690   -3.7370    6.0430 O   0  0  0  0  0  0  0  0  0  0  0  0
    8.0450   -2.9280    6.1430 C   0  0  0  0  0  2  0  0  0  0  0  0
    8.4730   -2.5540    4.7450 C   0  0  0  0  0  0  0  0  0  0  0  0
    8.1480   -3.3830    3.6600 C   0  0  0  0  0  3  0  0  0  0  0  0
    8.5640   -3.0530    2.3680 C   0  0  0  0  0  3  0  0  0  0  0  0
    9.3140   -1.8990    2.1560 C   0  0  0  0  0  0  0  0  0  0  0  0
    9.8260   -1.4910    0.5640 Cl  0  0  0  0  0  0  0  0  0  0  0  0
    9.6570   -1.0740    3.2250 C   0  0  0  0  0  3  0  0  0  0  0  0
    9.2420   -1.4040    4.5180 C   0  0  0  0  0  3  0  0  0  0  0  0
  1  6  2  0  0  0  0
  1  2  1  0  0  0  0
  2  3  2  0  0  0  0
  3  4  1  0  0  0  0
  5  4  2  0  0  0  0
  6  5  1  0  0  0  0
  7  8  2  0  0  0  0
  8  9  1  0  0  0  0
  8 11  1  0  0  0  0
  9  1  1  0  0  0  0
 10  9  1  0  0  0  0
 11 12  1  0  0  0  0
 12 13  2  0  0  0  0
 14 13  1  0  0  0  0
 15 14  2  0  0  0  0
 16 11  2  0  0  0  0
 16 15  1  0  0  0  0
 17 19  1  0  0  0  0
 17  6  1  0  0  0  0
 18 17  2  0  0  0  0
 20 21  1  0  0  0  0
 20  2  1  0  0  0  0
 22 21  1  0  0  0  0
 23 22  2  0  0  0  0
 24 23  1  0  0  0  0
 25 24  2  0  0  0  0
 25 27  1  0  0  0  0
 26 25  1  0  0  0  0
 27 28  2  0  0  0  0
 28 22  1  0  0  0  0
M  END
>  <minimizedAffinity>
-5.60995579

$$$$

 OpenBabel09122222153D

 28 30  0  0  0  0  0  0  0  0999 V2000
    7.2550   -5.0820    1.5850 C   0  0  0  0  0  0  0  0  0  0  0  0
    7.8490   -4.4510    0.4640 C   0  0  0  0  0  0  0  0  0  0  0  0
    7.5630   -4.8270   -0.8480 C   0  0  0  0  0  3  0  0  0  0  0  0
    6.6820   -5.8760   -1.0690 C   0  0  0  0  0  3  0  0  0  0  0  0
    6.0660   -6.4940    0.0190 C   0  0  0  0  0  3  0  0  0  0  0  0
    6.3100   -6.0940    1.3560 C   0  0  0  0  0  0  0  0  0  0  0  0
    7.7410   -3.4740    4.7870 O   0  0  0  0  0  0  0  0  0  0  0  0
    7.0690   -3.9160    3.8490 C   0  0  0  0  0  0  0  0  0  0  0  0
    7.6970   -4.5900    2.8320 N   0  0  0  0  0  0  0  0  0  0  0  0
    8.6700   -4.7820    3.0380 H   0  0  0  0  0  0  0  0  0  0  0  0
    5.5960   -3.9120    3.9940 C   0  0  0  0  0  0  0  0  0  0  0  0
    4.9680   -4.5400    5.0760 C   0  0  0  0  0  3  0  0  0  0  0  0
    3.5830   -4.4510    5.2240 C   0  0  0  0  0  3  0  0  0  0  0  0
    2.8270   -3.7220    4.3050 C   0  0  0  0  0  3  0  0  0  0  0  0
    3.4540   -3.0760    3.2390 C   0  0  0  0  0  3  0  0  0  0  0  0
    4.8390   -3.1610    3.0890 C   0  0  0  0  0  3  0  0  0  0  0  0
    5.4110   -6.6990    2.4080 C   0  0  0  0  0  0  0  0  0  0  0  0
    5.9780   -7.4260    3.2840 O   0  0  0  0  0  1  0  0  0  0  0  0
    4.1630   -6.4930    2.3040 O   0  0  0  0  0  0  0  0  0  0  0  0
    8.7500   -3.4250    0.6570 O   0  0  0  0  0  0  0  0  0  0  0  0
    9.8640   -3.5860   -0.2270 C   0  0  0  0  0  2  0  0  0  0  0  0
   10.3440   -2.2120   -0.6260 C   0  0  0  0  0  0  0  0  0  0  0  0
    9.8490   -1.0720    0.0270 C   0  0  0  0  0  3  0  0  0  0  0  0
   10.2720    0.2030   -0.3550 C   0  0  0  0  0  3  0  0  0  0  0  0
   11.1850    0.3450   -1.3970 C   0  0  0  0  0  0  0  0  0  0  0  0
   11.7090    1.9150   -1.8700 Cl  0  0  0  0  0  0  0  0  0  0  0  0
   11.6750   -0.7770   -2.0650 C   0  0  0  0  0  3  0  0  0  0  0  0
   11.2510   -2.0520   -1.6830 C   0  0  0  0  0  3  0  0  0  0  0  0
  1  9  1  0  0  0  0
  2 20  1  0  0  0  0
  2  1  2  0  0  0  0
  3  2  1  0  0  0  0
  4  3  2  0  0  0  0
  4  5  1  0  0  0  0
  5  6  2  0  0  0  0
  6  1  1  0  0  0  0
  6 17  1  0  0  0  0
  8 11  1  0  0  0  0
  8  7  2  0  0  0  0
  9 10  1  0  0  0  0
  9  8  1  0  0  0  0
 11 12  1  0  0  0  0
 12 13  2  0  0  0  0
 14 13  1  0  0  0  0
 15 14  2  0  0  0  0
 16 15  1  0  0  0  0
 16 11  2  0  0  0  0
 17 18  1  0  0  0  0
 19 17  2  0  0  0  0
 21 20  1  0  0  0  0
 22 21  1  0  0  0  0
 22 23  1  0  0  0  0
 24 23  2  0  0  0  0
 25 24  1  0  0  0  0
 26 25  1  0  0  0  0
 27 28  1  0  0  0  0
 27 25  2  0  0  0  0
 28 22  2  0  0  0  0
M  END
>  <minimizedAffinity>
-5.30023575

$$$$

 OpenBabel09122222153D

 28 30  0  0  0  0  0  0  0  0999 V2000
    5.0940   -4.9530    4.3170 C   0  0  0  0  0  0  0  0  0  0  0  0
    5.5190   -4.5730    3.0200 C   0  0  0  0  0  0  0  0  0  0  0  0
    5.1560   -5.2800    1.8740 C   0  0  0  0  0  3  0  0  0  0  0  0
    4.3700   -6.4140    2.0050 C   0  0  0  0  0  3  0  0  0  0  0  0
    3.9180   -6.7920    3.2690 C   0  0  0  0  0  3  0  0  0  0  0  0
    4.2390   -6.0590    4.4390 C   0  0  0  0  0  0  0  0  0  0  0  0
    5.8860   -2.3790    6.7290 O   0  0  0  0  0  0  0  0  0  0  0  0
    5.1660   -2.9570    5.9070 C   0  0  0  0  0  0  0  0  0  0  0  0
    5.5940   -4.1390    5.3550 N   0  0  0  0  0  0  0  0  0  0  0  0
    6.4280   -4.4960    5.8050 H   0  0  0  0  0  0  0  0  0  0  0  0
    3.7760   -2.4760    5.7480 C   0  0  0  0  0  0  0  0  0  0  0  0
    3.1640   -1.6790    6.7220 C   0  0  0  0  0  3  0  0  0  0  0  0
    1.8790   -1.1770    6.5050 C   0  0  0  0  0  3  0  0  0  0  0  0
    1.2130   -1.4540    5.3100 C   0  0  0  0  0  3  0  0  0  0  0  0
    1.8310   -2.2280    4.3280 C   0  0  0  0  0  3  0  0  0  0  0  0
    3.1170   -2.7300    4.5400 C   0  0  0  0  0  3  0  0  0  0  0  0
    3.5020   -6.4540    5.6970 C   0  0  0  0  0  0  0  0  0  0  0  0
    2.3140   -6.8810    5.5440 O   0  0  0  0  0  0  0  0  0  0  0  0
    4.0920   -6.2710    6.8060 O   0  0  0  0  0  1  0  0  0  0  0  0
    6.3270   -3.4650    2.8640 O   0  0  0  0  0  0  0  0  0  0  0  0
    7.6980   -3.8700    2.8100 C   0  0  0  0  0  2  0  0  0  0  0  0
    8.5220   -2.8170    3.5110 C   0  0  0  0  0  0  0  0  0  0  0  0
    8.8070   -2.9360    4.8800 C   0  0  0  0  0  3  0  0  0  0  0  0
    9.5470   -1.9510    5.5380 C   0  0  0  0  0  3  0  0  0  0  0  0
    9.9980   -0.8390    4.8320 C   0  0  0  0  0  0  0  0  0  0  0  0
   10.9120    0.3760    5.6390 Cl  0  0  0  0  0  0  0  0  0  0  0  0
    9.7110   -0.6990    3.4750 C   0  0  0  0  0  3  0  0  0  0  0  0
    8.9690   -1.6840    2.8170 C   0  0  0  0  0  3  0  0  0  0  0  0
  1  6  1  0  0  0  0
  1  9  1  0  0  0  0
  2  1  2  0  0  0  0
  3  4  2  0  0  0  0
  3  2  1  0  0  0  0
  4  5  1  0  0  0  0
  5  6  2  0  0  0  0
  6 17  1  0  0  0  0
  8  7  2  0  0  0  0
  9 10  1  0  0  0  0
  9  8  1  0  0  0  0
 11  8  1  0  0  0  0
 11 12  1  0  0  0  0
 13 12  2  0  0  0  0
 14 13  1  0  0  0  0
 15 16  1  0  0  0  0
 15 14  2  0  0  0  0
 16 11  2  0  0  0  0
 17 19  1  0  0  0  0
 18 17  2  0  0  0  0
 20  2  1  0  0  0  0
 21 20  1  0  0  0  0
 21 22  1  0  0  0  0
 22 23  1  0  0  0  0
 23 24  2  0  0  0  0
 25 24  1  0  0  0  0
 25 26  1  0  0  0  0
 27 25  2  0  0  0  0
 28 27  1  0  0  0  0
 28 22  2  0  0  0  0
M  END
>  <minimizedAffinity>
-5.29485989

$$$$

 OpenBabel09122222153D

 28 30  0  0  0  0  0  0  0  0999 V2000
    9.0830   -3.7510    1.4810 C   0  0  0  0  0  0  0  0  0  0  0  0
    8.5470   -3.0500    2.5890 C   0  0  0  0  0  0  0  0  0  0  0  0
    8.5080   -1.6580    2.6490 C   0  0  0  0  0  3  0  0  0  0  0  0
    9.0350   -0.9250    1.5960 C   0  0  0  0  0  3  0  0  0  0  0  0
    9.5430   -1.5940    0.4820 C   0  0  0  0  0  3  0  0  0  0  0  0
    9.5490   -3.0080    0.3860 C   0  0  0  0  0  0  0  0  0  0  0  0
    8.3280   -7.2610    1.9100 O   0  0  0  0  0  0  0  0  0  0  0  0
    8.0630   -6.0870    1.6260 C   0  0  0  0  0  0  0  0  0  0  0  0
    9.0710   -5.1550    1.6190 N   0  0  0  0  0  0  0  0  0  0  0  0
    9.9870   -5.5760    1.7170 H   0  0  0  0  0  0  0  0  0  0  0  0
    6.7240   -5.7980    1.0660 C   0  0  0  0  0  0  0  0  0  0  0  0
    6.4380   -6.0080   -0.2880 C   0  0  0  0  0  3  0  0  0  0  0  0
    5.1440   -5.7980   -0.7670 C   0  0  0  0  0  3  0  0  0  0  0  0
    4.1320   -5.3980    0.1070 C   0  0  0  0  0  3  0  0  0  0  0  0
    4.4090   -5.2120    1.4620 C   0  0  0  0  0  3  0  0  0  0  0  0
    5.7020   -5.4220    1.9440 C   0  0  0  0  0  3  0  0  0  0  0  0
    9.9220   -3.5820   -0.9600 C   0  0  0  0  0  0  0  0  0  0  0  0
    9.1830   -4.5210   -1.3970 O   0  0  0  0  0  1  0  0  0  0  0  0
   10.9710   -3.1380   -1.5200 O   0  0  0  0  0  0  0  0  0  0  0  0
    8.0430   -3.7550    3.6630 O   0  0  0  0  0  0  0  0  0  0  0  0
    8.1440   -2.9630    4.8510 C   0  0  0  0  0  2  0  0  0  0  0  0
    6.8050   -2.9970    5.5480 C   0  0  0  0  0  0  0  0  0  0  0  0
    5.7380   -3.7210    4.9940 C   0  0  0  0  0  3  0  0  0  0  0  0
    4.4900   -3.7340    5.6220 C   0  0  0  0  0  3  0  0  0  0  0  0
    4.3020   -3.0180    6.8010 C   0  0  0  0  0  0  0  0  0  0  0  0
    2.7660   -3.0330    7.5770 Cl  0  0  0  0  0  0  0  0  0  0  0  0
    5.3480   -2.2820    7.3550 C   0  0  0  0  0  3  0  0  0  0  0  0
    6.5960   -2.2680    6.7260 C   0  0  0  0  0  3  0  0  0  0  0  0
  1  9  1  0  0  0  0
  1  2  1  0  0  0  0
  2  3  2  0  0  0  0
  2 20  1  0  0  0  0
  4  3  1  0  0  0  0
  5  4  2  0  0  0  0
  6  5  1  0  0  0  0
  6  1  2  0  0  0  0
  8  7  2  0  0  0  0
  9  8  1  0  0  0  0
  9 10  1  0  0  0  0
 11  8  1  0  0  0  0
 11 16  1  0  0  0  0
 12 11  2  0  0  0  0
 13 12  1  0  0  0  0
 13 14  2  0  0  0  0
 14 15  1  0  0  0  0
 15 16  2  0  0  0  0
 17  6  1  0  0  0  0
 18 17  1  0  0  0  0
 19 17  2  0  0  0  0
 20 21  1  0  0  0  0
 21 22  1  0  0  0  0
 22 28  1  0  0  0  0
 23 22  2  0  0  0  0
 23 24  1  0  0  0  0
 24 25  2  0  0  0  0
 25 27  1  0  0  0  0
 25 26  1  0  0  0  0
 28 27  2  0  0  0  0
M  END
>  <minimizedAffinity>
-5.27166367

$$$$
