
 OpenBabel09122222393D

 28 30  0  0  0  0  0  0  0  0999 V2000
    5.0940   -4.9530    4.3170 C   0  0  0  0  0  0  0  0  0  0  0  0
    5.5190   -4.5730    3.0200 C   0  0  0  0  0  0  0  0  0  0  0  0
    5.1560   -5.2800    1.8740 C   0  0  0  0  0  3  0  0  0  0  0  0
    4.3700   -6.4140    2.0050 C   0  0  0  0  0  3  0  0  0  0  0  0
    3.9180   -6.7920    3.2690 C   0  0  0  0  0  3  0  0  0  0  0  0
    4.2390   -6.0590    4.4390 C   0  0  0  0  0  0  0  0  0  0  0  0
    5.8860   -2.3790    6.7290 O   0  0  0  0  0  0  0  0  0  0  0  0
    5.1660   -2.9570    5.9070 C   0  0  0  0  0  0  0  0  0  0  0  0
    5.5940   -4.1390    5.3550 N   0  0  0  0  0  0  0  0  0  0  0  0
    6.4280   -4.4960    5.8050 H   0  0  0  0  0  0  0  0  0  0  0  0
    3.7760   -2.4760    5.7480 C   0  0  0  0  0  0  0  0  0  0  0  0
    3.1640   -1.6790    6.7220 C   0  0  0  0  0  3  0  0  0  0  0  0
    1.8790   -1.1770    6.5050 C   0  0  0  0  0  3  0  0  0  0  0  0
    1.2130   -1.4540    5.3100 C   0  0  0  0  0  3  0  0  0  0  0  0
    1.8310   -2.2280    4.3280 C   0  0  0  0  0  3  0  0  0  0  0  0
    3.1170   -2.7300    4.5400 C   0  0  0  0  0  3  0  0  0  0  0  0
    3.5020   -6.4540    5.6970 C   0  0  0  0  0  0  0  0  0  0  0  0
    2.3140   -6.8810    5.5440 O   0  0  0  0  0  0  0  0  0  0  0  0
    4.0920   -6.2710    6.8060 O   0  0  0  0  0  1  0  0  0  0  0  0
    6.3270   -3.4650    2.8640 O   0  0  0  0  0  0  0  0  0  0  0  0
    7.6980   -3.8700    2.8100 C   0  0  0  0  0  2  0  0  0  0  0  0
    8.5220   -2.8170    3.5110 C   0  0  0  0  0  0  0  0  0  0  0  0
    8.8070   -2.9360    4.8800 C   0  0  0  0  0  3  0  0  0  0  0  0
    9.5470   -1.9510    5.5380 C   0  0  0  0  0  3  0  0  0  0  0  0
    9.9980   -0.8390    4.8320 C   0  0  0  0  0  0  0  0  0  0  0  0
   10.9120    0.3760    5.6390 Cl  0  0  0  0  0  0  0  0  0  0  0  0
    9.7110   -0.6990    3.4750 C   0  0  0  0  0  3  0  0  0  0  0  0
    8.9690   -1.6840    2.8170 C   0  0  0  0  0  3  0  0  0  0  0  0
  1  6  1  0  0  0  0
  1  9  1  0  0  0  0
  2  1  2  0  0  0  0
  3  4  2  0  0  0  0
  3  2  1  0  0  0  0
  4  5  1  0  0  0  0
  5  6  2  0  0  0  0
  6 17  1  0  0  0  0
  8  7  2  0  0  0  0
  9 10  1  0  0  0  0
  9  8  1  0  0  0  0
 11  8  1  0  0  0  0
 11 12  1  0  0  0  0
 13 12  2  0  0  0  0
 14 13  1  0  0  0  0
 15 16  1  0  0  0  0
 15 14  2  0  0  0  0
 16 11  2  0  0  0  0
 17 19  1  0  0  0  0
 18 17  2  0  0  0  0
 20  2  1  0  0  0  0
 21 20  1  0  0  0  0
 21 22  1  0  0  0  0
 22 23  1  0  0  0  0
 23 24  2  0  0  0  0
 25 24  1  0  0  0  0
 25 26  1  0  0  0  0
 27 25  2  0  0  0  0
 28 27  1  0  0  0  0
 28 22  2  0  0  0  0
M  END
>  <minimizedAffinity>
-5.29485989

$$$$
