
 OpenBabel09122222393D

 28 30  0  0  0  0  0  0  0  0999 V2000
    5.5310   -5.5850    2.1720 C   0  0  0  0  0  0  0  0  0  0  0  0
    6.8360   -5.1880    1.7910 C   0  0  0  0  0  0  0  0  0  0  0  0
    7.8570   -6.1060    1.5430 C   0  0  0  0  0  3  0  0  0  0  0  0
    7.5970   -7.4590    1.6970 C   0  0  0  0  0  3  0  0  0  0  0  0
    6.3110   -7.8730    2.0460 C   0  0  0  0  0  3  0  0  0  0  0  0
    5.2500   -6.9570    2.2570 C   0  0  0  0  0  0  0  0  0  0  0  0
    3.2520   -3.1050    3.4850 O   0  0  0  0  0  0  0  0  0  0  0  0
    4.1350   -3.9660    3.5670 C   0  0  0  0  0  0  0  0  0  0  0  0
    4.6450   -4.5140    2.4170 N   0  0  0  0  0  0  0  0  0  0  0  0
    4.3270   -4.0320    1.5840 H   0  0  0  0  0  0  0  0  0  0  0  0
    4.7690   -4.1810    4.8870 C   0  0  0  0  0  0  0  0  0  0  0  0
    5.9430   -3.5110    5.2490 C   0  0  0  0  0  3  0  0  0  0  0  0
    6.4730   -3.6780    6.5300 C   0  0  0  0  0  3  0  0  0  0  0  0
    5.8210   -4.4960    7.4550 C   0  0  0  0  0  3  0  0  0  0  0  0
    4.6370   -5.1450    7.1030 C   0  0  0  0  0  3  0  0  0  0  0  0
    4.1040   -4.9790    5.8240 C   0  0  0  0  0  3  0  0  0  0  0  0
    3.8720   -7.5550    2.4080 C   0  0  0  0  0  0  0  0  0  0  0  0
    3.2770   -7.8810    1.3320 O   0  0  0  0  0  0  0  0  0  0  0  0
    3.3870   -7.6270    3.5780 O   0  0  0  0  0  1  0  0  0  0  0  0
    7.1310   -3.8470    1.6590 O   0  0  0  0  0  0  0  0  0  0  0  0
    8.4580   -3.5940    2.1300 C   0  0  0  0  0  2  0  0  0  0  0  0
    9.1530   -2.7180    1.1160 C   0  0  0  0  0  0  0  0  0  0  0  0
    9.8930   -3.2950    0.0720 C   0  0  0  0  0  3  0  0  0  0  0  0
   10.5580   -2.4870   -0.8540 C   0  0  0  0  0  3  0  0  0  0  0  0
   10.4930   -1.1010   -0.7350 C   0  0  0  0  0  0  0  0  0  0  0  0
   11.3100   -0.1040   -1.8760 Cl  0  0  0  0  0  0  0  0  0  0  0  0
    9.7740   -0.5150    0.3040 C   0  0  0  0  0  3  0  0  0  0  0  0
    9.1090   -1.3220    1.2310 C   0  0  0  0  0  3  0  0  0  0  0  0
  1  6  1  0  0  0  0
  1  9  1  0  0  0  0
  2  1  2  0  0  0  0
  3  4  2  0  0  0  0
  3  2  1  0  0  0  0
  4  5  1  0  0  0  0
  5  6  2  0  0  0  0
  6 17  1  0  0  0  0
  7  8  2  0  0  0  0
  8 11  1  0  0  0  0
  9  8  1  0  0  0  0
 10  9  1  0  0  0  0
 11 12  2  0  0  0  0
 11 16  1  0  0  0  0
 12 13  1  0  0  0  0
 13 14  2  0  0  0  0
 15 14  1  0  0  0  0
 16 15  2  0  0  0  0
 17 19  1  0  0  0  0
 18 17  2  0  0  0  0
 20  2  1  0  0  0  0
 20 21  1  0  0  0  0
 22 28  1  0  0  0  0
 22 21  1  0  0  0  0
 23 22  2  0  0  0  0
 24 25  2  0  0  0  0
 24 23  1  0  0  0  0
 25 27  1  0  0  0  0
 26 25  1  0  0  0  0
 27 28  2  0  0  0  0
M  END
>  <minimizedAffinity>
-5.67388058

$$$$
