
 OpenBabel09122222393D

 28 30  0  0  0  0  0  0  0  0999 V2000
    7.9140   -2.3390    6.0720 C   0  0  0  0  0  0  0  0  0  0  0  0
    6.6800   -2.9320    5.7060 C   0  0  0  0  0  0  0  0  0  0  0  0
    5.4640   -2.5350    6.2610 C   0  0  0  0  0  3  0  0  0  0  0  0
    5.4570   -1.5400    7.2260 C   0  0  0  0  0  3  0  0  0  0  0  0
    6.6580   -0.9240    7.5820 C   0  0  0  0  0  3  0  0  0  0  0  0
    7.8970   -1.2830    6.9960 C   0  0  0  0  0  0  0  0  0  0  0  0
   10.5630   -3.3970    3.8500 O   0  0  0  0  0  0  0  0  0  0  0  0
    9.6570   -2.6470    4.2320 C   0  0  0  0  0  0  0  0  0  0  0  0
    9.0410   -2.8990    5.4330 N   0  0  0  0  0  0  0  0  0  0  0  0
    9.5090   -3.6230    5.9640 H   0  0  0  0  0  0  0  0  0  0  0  0
    9.4550   -1.3790    3.4980 C   0  0  0  0  0  0  0  0  0  0  0  0
    9.9420   -0.1630    3.9930 C   0  0  0  0  0  3  0  0  0  0  0  0
    9.8010    1.0020    3.2370 C   0  0  0  0  0  3  0  0  0  0  0  0
    9.1930    0.9530    1.9820 C   0  0  0  0  0  3  0  0  0  0  0  0
    8.7290   -0.2620    1.4770 C   0  0  0  0  0  3  0  0  0  0  0  0
    8.8690   -1.4300    2.2280 C   0  0  0  0  0  3  0  0  0  0  0  0
    9.0690   -0.3860    7.3130 C   0  0  0  0  0  0  0  0  0  0  0  0
    8.8590    0.8660    7.2360 O   0  0  0  0  0  0  0  0  0  0  0  0
   10.1830   -0.9410    7.5660 O   0  0  0  0  0  1  0  0  0  0  0  0
    6.6610   -3.9440    4.7690 O   0  0  0  0  0  0  0  0  0  0  0  0
    5.3320   -4.1090    4.2620 C   0  0  0  0  0  2  0  0  0  0  0  0
    5.4090   -4.9800    3.0320 C   0  0  0  0  0  0  0  0  0  0  0  0
    6.4990   -4.8700    2.1540 C   0  0  0  0  0  3  0  0  0  0  0  0
    6.5610   -5.6560    1.0010 C   0  0  0  0  0  3  0  0  0  0  0  0
    5.5300   -6.5480    0.7160 C   0  0  0  0  0  0  0  0  0  0  0  0
    5.6050   -7.5180   -0.7040 Cl  0  0  0  0  0  0  0  0  0  0  0  0
    4.4350   -6.6570    1.5700 C   0  0  0  0  0  3  0  0  0  0  0  0
    4.3710   -5.8710    2.7230 C   0  0  0  0  0  3  0  0  0  0  0  0
  1  6  1  0  0  0  0
  2  1  2  0  0  0  0
  2  3  1  0  0  0  0
  3  4  2  0  0  0  0
  4  5  1  0  0  0  0
  6 17  1  0  0  0  0
  6  5  2  0  0  0  0
  7  8  2  0  0  0  0
  8  9  1  0  0  0  0
  9 10  1  0  0  0  0
  9  1  1  0  0  0  0
 11 12  1  0  0  0  0
 11  8  1  0  0  0  0
 13 12  2  0  0  0  0
 14 13  1  0  0  0  0
 15 14  2  0  0  0  0
 15 16  1  0  0  0  0
 16 11  2  0  0  0  0
 17 19  1  0  0  0  0
 18 17  2  0  0  0  0
 20  2  1  0  0  0  0
 21 20  1  0  0  0  0
 22 21  1  0  0  0  0
 23 22  2  0  0  0  0
 24 23  1  0  0  0  0
 25 24  2  0  0  0  0
 25 27  1  0  0  0  0
 26 25  1  0  0  0  0
 27 28  2  0  0  0  0
 28 22  1  0  0  0  0
M  END
>  <minimizedAffinity>
-5.9365077

$$$$
