
 OpenBabel09122222393D

 28 30  0  0  0  0  0  0  0  0999 V2000
    8.9280   -2.3950    1.2020 C   0  0  0  0  0  0  0  0  0  0  0  0
    9.5520   -3.3780    0.3960 C   0  0  0  0  0  0  0  0  0  0  0  0
   10.6100   -3.0840   -0.4620 C   0  0  0  0  0  3  0  0  0  0  0  0
   11.0570   -1.7750   -0.5540 C   0  0  0  0  0  3  0  0  0  0  0  0
   10.4750   -0.7940    0.2500 C   0  0  0  0  0  3  0  0  0  0  0  0
    9.4290   -1.0840    1.1610 C   0  0  0  0  0  0  0  0  0  0  0  0
    6.6880   -3.7800    3.6790 O   0  0  0  0  0  0  0  0  0  0  0  0
    7.7380   -3.2570    3.2900 C   0  0  0  0  0  0  0  0  0  0  0  0
    7.8500   -2.8740    1.9760 N   0  0  0  0  0  0  0  0  0  0  0  0
    6.9700   -2.9380    1.4790 H   0  0  0  0  0  0  0  0  0  0  0  0
    8.7240   -2.8450    4.3130 C   0  0  0  0  0  0  0  0  0  0  0  0
   10.1010   -2.9560    4.0850 C   0  0  0  0  0  3  0  0  0  0  0  0
   11.0050   -2.4870    5.0400 C   0  0  0  0  0  3  0  0  0  0  0  0
   10.5360   -1.8910    6.2120 C   0  0  0  0  0  3  0  0  0  0  0  0
    9.1650   -1.7580    6.4300 C   0  0  0  0  0  3  0  0  0  0  0  0
    8.2590   -2.2240    5.4770 C   0  0  0  0  0  3  0  0  0  0  0  0
    9.0520    0.0210    2.1180 C   0  0  0  0  0  0  0  0  0  0  0  0
    8.3550    0.9700    1.6370 O   0  0  0  0  0  0  0  0  0  0  0  0
    9.5080   -0.0430    3.3000 O   0  0  0  0  0  1  0  0  0  0  0  0
    9.1070   -4.6840    0.4460 O   0  0  0  0  0  0  0  0  0  0  0  0
    8.1620   -4.9130   -0.6040 C   0  0  0  0  0  2  0  0  0  0  0  0
    6.9970   -5.6750   -0.0220 C   0  0  0  0  0  0  0  0  0  0  0  0
    5.7480   -5.6580   -0.6630 C   0  0  0  0  0  3  0  0  0  0  0  0
    4.6610   -6.3410   -0.1140 C   0  0  0  0  0  3  0  0  0  0  0  0
    4.8140   -7.0360    1.0830 C   0  0  0  0  0  0  0  0  0  0  0  0
    3.4750   -7.8800    1.7610 Cl  0  0  0  0  0  0  0  0  0  0  0  0
    6.0430   -7.0500    1.7390 C   0  0  0  0  0  3  0  0  0  0  0  0
    7.1310   -6.3660    1.1910 C   0  0  0  0  0  3  0  0  0  0  0  0
  1  9  1  0  0  0  0
  2 20  1  0  0  0  0
  2  1  2  0  0  0  0
  3  2  1  0  0  0  0
  4  3  2  0  0  0  0
  4  5  1  0  0  0  0
  5  6  2  0  0  0  0
  6  1  1  0  0  0  0
  6 17  1  0  0  0  0
  8  7  2  0  0  0  0
  8 11  1  0  0  0  0
  9  8  1  0  0  0  0
 10  9  1  0  0  0  0
 11 16  1  0  0  0  0
 12 11  2  0  0  0  0
 12 13  1  0  0  0  0
 13 14  2  0  0  0  0
 14 15  1  0  0  0  0
 16 15  2  0  0  0  0
 17 19  1  0  0  0  0
 18 17  2  0  0  0  0
 21 22  1  0  0  0  0
 21 20  1  0  0  0  0
 22 28  1  0  0  0  0
 23 24  1  0  0  0  0
 23 22  2  0  0  0  0
 24 25  2  0  0  0  0
 25 27  1  0  0  0  0
 25 26  1  0  0  0  0
 28 27  2  0  0  0  0
M  END
>  <minimizedAffinity>
-5.72307491

$$$$
