
 OpenBabel09122222393D

 28 30  0  0  0  0  0  0  0  0999 V2000
    5.2310   -4.8730    4.3160 C   0  0  0  0  0  0  0  0  0  0  0  0
    5.8260   -4.5590    3.0700 C   0  0  0  0  0  0  0  0  0  0  0  0
    5.5150   -5.2450    1.8960 C   0  0  0  0  0  3  0  0  0  0  0  0
    4.6080   -6.2920    1.9500 C   0  0  0  0  0  3  0  0  0  0  0  0
    3.9900   -6.6020    3.1620 C   0  0  0  0  0  3  0  0  0  0  0  0
    4.2600   -5.8860    4.3550 C   0  0  0  0  0  0  0  0  0  0  0  0
    5.9440   -2.3880    6.8440 O   0  0  0  0  0  0  0  0  0  0  0  0
    5.2480   -2.9400    5.9840 C   0  0  0  0  0  0  0  0  0  0  0  0
    5.6990   -4.0960    5.3970 N   0  0  0  0  0  0  0  0  0  0  0  0
    6.5260   -4.4630    5.8530 H   0  0  0  0  0  0  0  0  0  0  0  0
    3.8580   -2.4630    5.8100 C   0  0  0  0  0  0  0  0  0  0  0  0
    3.2160   -1.7110    6.8010 C   0  0  0  0  0  3  0  0  0  0  0  0
    1.9320   -1.2120    6.5740 C   0  0  0  0  0  3  0  0  0  0  0  0
    1.2980   -1.4450    5.3520 C   0  0  0  0  0  3  0  0  0  0  0  0
    1.9460   -2.1730    4.3550 C   0  0  0  0  0  3  0  0  0  0  0  0
    3.2300   -2.6730    4.5780 C   0  0  0  0  0  3  0  0  0  0  0  0
    3.3600   -6.1840    5.5300 C   0  0  0  0  0  0  0  0  0  0  0  0
    2.1090   -6.1590    5.3030 O   0  0  0  0  0  0  0  0  0  0  0  0
    3.9080   -6.3690    6.6590 O   0  0  0  0  0  1  0  0  0  0  0  0
    6.7530   -3.5400    2.9940 O   0  0  0  0  0  0  0  0  0  0  0  0
    8.0350   -4.0780    2.6520 C   0  0  0  0  0  2  0  0  0  0  0  0
    8.6940   -3.1270    1.6820 C   0  0  0  0  0  0  0  0  0  0  0  0
    9.2750   -3.6130    0.5000 C   0  0  0  0  0  3  0  0  0  0  0  0
    9.9080   -2.7390   -0.3880 C   0  0  0  0  0  3  0  0  0  0  0  0
    9.9700   -1.3800   -0.0940 C   0  0  0  0  0  0  0  0  0  0  0  0
   10.7480   -0.3010   -1.1870 Cl  0  0  0  0  0  0  0  0  0  0  0  0
    9.4100   -0.8850    1.0820 C   0  0  0  0  0  3  0  0  0  0  0  0
    8.7780   -1.7580    1.9720 C   0  0  0  0  0  3  0  0  0  0  0  0
  1  6  1  0  0  0  0
  1  9  1  0  0  0  0
  2  1  2  0  0  0  0
  3  4  2  0  0  0  0
  3  2  1  0  0  0  0
  4  5  1  0  0  0  0
  5  6  2  0  0  0  0
  6 17  1  0  0  0  0
  8  7  2  0  0  0  0
  9 10  1  0  0  0  0
  9  8  1  0  0  0  0
 11  8  1  0  0  0  0
 11 12  1  0  0  0  0
 13 12  2  0  0  0  0
 14 13  1  0  0  0  0
 15 16  1  0  0  0  0
 15 14  2  0  0  0  0
 16 11  2  0  0  0  0
 17 19  1  0  0  0  0
 18 17  2  0  0  0  0
 20  2  1  0  0  0  0
 21 20  1  0  0  0  0
 22 28  1  0  0  0  0
 22 21  1  0  0  0  0
 23 22  2  0  0  0  0
 24 25  2  0  0  0  0
 24 23  1  0  0  0  0
 25 27  1  0  0  0  0
 26 25  1  0  0  0  0
 27 28  2  0  0  0  0
M  END
>  <minimizedAffinity>
-6.36512423

$$$$
