
 OpenBabel09122222393D

 28 30  0  0  0  0  0  0  0  0999 V2000
    7.2550   -5.0820    1.5850 C   0  0  0  0  0  0  0  0  0  0  0  0
    7.8490   -4.4510    0.4640 C   0  0  0  0  0  0  0  0  0  0  0  0
    7.5630   -4.8270   -0.8480 C   0  0  0  0  0  3  0  0  0  0  0  0
    6.6820   -5.8760   -1.0690 C   0  0  0  0  0  3  0  0  0  0  0  0
    6.0660   -6.4940    0.0190 C   0  0  0  0  0  3  0  0  0  0  0  0
    6.3100   -6.0940    1.3560 C   0  0  0  0  0  0  0  0  0  0  0  0
    7.7410   -3.4740    4.7870 O   0  0  0  0  0  0  0  0  0  0  0  0
    7.0690   -3.9160    3.8490 C   0  0  0  0  0  0  0  0  0  0  0  0
    7.6970   -4.5900    2.8320 N   0  0  0  0  0  0  0  0  0  0  0  0
    8.6700   -4.7820    3.0380 H   0  0  0  0  0  0  0  0  0  0  0  0
    5.5960   -3.9120    3.9940 C   0  0  0  0  0  0  0  0  0  0  0  0
    4.9680   -4.5400    5.0760 C   0  0  0  0  0  3  0  0  0  0  0  0
    3.5830   -4.4510    5.2240 C   0  0  0  0  0  3  0  0  0  0  0  0
    2.8270   -3.7220    4.3050 C   0  0  0  0  0  3  0  0  0  0  0  0
    3.4540   -3.0760    3.2390 C   0  0  0  0  0  3  0  0  0  0  0  0
    4.8390   -3.1610    3.0890 C   0  0  0  0  0  3  0  0  0  0  0  0
    5.4110   -6.6990    2.4080 C   0  0  0  0  0  0  0  0  0  0  0  0
    5.9780   -7.4260    3.2840 O   0  0  0  0  0  1  0  0  0  0  0  0
    4.1630   -6.4930    2.3040 O   0  0  0  0  0  0  0  0  0  0  0  0
    8.7500   -3.4250    0.6570 O   0  0  0  0  0  0  0  0  0  0  0  0
    9.8640   -3.5860   -0.2270 C   0  0  0  0  0  2  0  0  0  0  0  0
   10.3440   -2.2120   -0.6260 C   0  0  0  0  0  0  0  0  0  0  0  0
    9.8490   -1.0720    0.0270 C   0  0  0  0  0  3  0  0  0  0  0  0
   10.2720    0.2030   -0.3550 C   0  0  0  0  0  3  0  0  0  0  0  0
   11.1850    0.3450   -1.3970 C   0  0  0  0  0  0  0  0  0  0  0  0
   11.7090    1.9150   -1.8700 Cl  0  0  0  0  0  0  0  0  0  0  0  0
   11.6750   -0.7770   -2.0650 C   0  0  0  0  0  3  0  0  0  0  0  0
   11.2510   -2.0520   -1.6830 C   0  0  0  0  0  3  0  0  0  0  0  0
  1  9  1  0  0  0  0
  2 20  1  0  0  0  0
  2  1  2  0  0  0  0
  3  2  1  0  0  0  0
  4  3  2  0  0  0  0
  4  5  1  0  0  0  0
  5  6  2  0  0  0  0
  6  1  1  0  0  0  0
  6 17  1  0  0  0  0
  8 11  1  0  0  0  0
  8  7  2  0  0  0  0
  9 10  1  0  0  0  0
  9  8  1  0  0  0  0
 11 12  1  0  0  0  0
 12 13  2  0  0  0  0
 14 13  1  0  0  0  0
 15 14  2  0  0  0  0
 16 15  1  0  0  0  0
 16 11  2  0  0  0  0
 17 18  1  0  0  0  0
 19 17  2  0  0  0  0
 21 20  1  0  0  0  0
 22 21  1  0  0  0  0
 22 23  1  0  0  0  0
 24 23  2  0  0  0  0
 25 24  1  0  0  0  0
 26 25  1  0  0  0  0
 27 28  1  0  0  0  0
 27 25  2  0  0  0  0
 28 22  2  0  0  0  0
M  END
>  <minimizedAffinity>
-5.30023575

$$$$
