
 OpenBabel09122222393D

 28 30  0  0  0  0  0  0  0  0999 V2000
    3.9270   -2.8900    5.9240 C   0  0  0  0  0  0  0  0  0  0  0  0
    4.9510   -3.7610    5.8620 C   0  0  0  0  0  0  0  0  0  0  0  0
    5.0360   -4.7840    4.9400 N   0  0  0  0  0  0  0  0  0  0  0  0
    4.1040   -4.8680    4.0530 C   0  0  0  0  0  0  0  0  0  0  0  0
    3.0520   -4.0140    3.9840 N   0  0  0  0  0  0  0  0  0  0  0  0
    2.8590   -3.0360    4.9140 C   0  0  0  0  0  0  0  0  0  0  0  0
    1.8600   -2.3260    4.8900 O   0  0  0  0  0  0  0  0  0  0  0  0
    2.3610   -4.0940    3.2570 H   0  0  0  0  0  0  0  0  0  0  0  0
    6.1240   -3.6050    6.7480 C   0  0  0  0  0  0  0  0  0  0  0  0
    6.1700   -4.1920    8.0190 C   0  0  0  0  0  3  0  0  0  0  0  0
    7.2870   -4.0090    8.8400 C   0  0  0  0  0  3  0  0  0  0  0  0
    8.3630   -3.2470    8.3890 C   0  0  0  0  0  0  0  0  0  0  0  0
    9.8720   -2.9990    9.5000 Br  0  0  0  0  0  0  0  0  0  0  0  0
    8.3380   -2.6700    7.1210 C   0  0  0  0  0  3  0  0  0  0  0  0
    7.2230   -2.8530    6.3010 C   0  0  0  0  0  3  0  0  0  0  0  0
    3.7850   -0.7400    7.6820 N   0  0  0  0  0  1  0  0  0  0  0  0
    3.8490   -1.7150    6.8850 C   0  0  0  0  0  2  0  0  0  0  0  0
    4.1910   -6.0890    2.8260 S   0  0  0  0  0  0  0  0  0  0  0  0
    5.9600   -6.3860    2.6130 C   0  0  0  0  0  2  0  0  0  0  0  0
    6.5630   -5.9350    1.3030 C   0  0  0  0  0  0  0  0  0  0  0  0
    5.9000   -6.2250    0.0980 C   0  0  0  0  0  3  0  0  0  0  0  0
    6.4190   -5.8010   -1.1280 C   0  0  0  0  0  3  0  0  0  0  0  0
    7.6060   -5.0710   -1.1710 C   0  0  0  0  0  3  0  0  0  0  0  0
    8.2670   -4.7630    0.0250 C   0  0  0  0  0  0  0  0  0  0  0  0
    7.7490   -5.1860    1.2590 C   0  0  0  0  0  3  0  0  0  0  0  0
    9.5120   -3.9850   -0.0160 N   0  0  0  0  0  0  0  0  0  0  0  0
   10.1700   -4.0090   -1.0660 O   0  0  0  0  0  0  0  0  0  0  0  0
    9.8310   -3.3530    1.0000 O   0  0  0  0  0  0  0  0  0  0  0  0
  1 17  1  0  0  0  0
  2  1  2  0  0  0  0
  2  9  1  0  0  0  0
  3  2  1  0  0  0  0
  4  3  2  0  0  0  0
  5  4  1  0  0  0  0
  5  6  1  0  0  0  0
  6  1  1  0  0  0  0
  7  6  2  0  0  0  0
  8  5  1  0  0  0  0
  9 10  1  0  0  0  0
 10 11  2  0  0  0  0
 12 11  1  0  0  0  0
 12 13  1  0  0  0  0
 14 12  2  0  0  0  0
 15  9  2  0  0  0  0
 15 14  1  0  0  0  0
 17 16  1  0  0  0  0
 18  4  1  0  0  0  0
 19 18  1  0  0  0  0
 20 19  1  0  0  0  0
 21 20  2  0  0  0  0
 22 21  1  0  0  0  0
 23 22  2  0  0  0  0
 23 24  1  0  0  0  0
 24 25  2  0  0  0  0
 25 20  1  0  0  0  0
 26 24  1  0  0  0  0
 26 28  2  0  0  0  0
 27 26  2  0  0  0  0
M  END
>  <minimizedAffinity>
-7.48358107

$$$$
