
 OpenBabel09122222393D

 28 30  0  0  0  0  0  0  0  0999 V2000
    7.0780   -5.4680    0.3820 C   0  0  0  0  0  0  0  0  0  0  0  0
    6.9000   -5.1180    1.6680 C   0  0  0  0  0  0  0  0  0  0  0  0
    7.6830   -4.1950    2.3300 N   0  0  0  0  0  0  0  0  0  0  0  0
    8.6000   -3.5930    1.6520 C   0  0  0  0  0  0  0  0  0  0  0  0
    8.8370   -3.8240    0.3360 N   0  0  0  0  0  0  0  0  0  0  0  0
    8.1600   -4.7840   -0.3570 C   0  0  0  0  0  0  0  0  0  0  0  0
    8.4410   -5.0420   -1.5220 O   0  0  0  0  0  0  0  0  0  0  0  0
    9.5420   -3.3120   -0.1660 H   0  0  0  0  0  0  0  0  0  0  0  0
    5.7590   -5.6540    2.4410 C   0  0  0  0  0  0  0  0  0  0  0  0
    4.8060   -4.8110    3.0270 C   0  0  0  0  0  3  0  0  0  0  0  0
    3.7500   -5.3490    3.7680 C   0  0  0  0  0  3  0  0  0  0  0  0
    3.6400   -6.7310    3.9180 C   0  0  0  0  0  0  0  0  0  0  0  0
    2.2130   -7.4580    4.9210 Br  0  0  0  0  0  0  0  0  0  0  0  0
    4.5720   -7.5820    3.3290 C   0  0  0  0  0  3  0  0  0  0  0  0
    5.6270   -7.0440    2.5880 C   0  0  0  0  0  3  0  0  0  0  0  0
    5.4420   -7.2260   -1.0210 N   0  0  0  0  0  1  0  0  0  0  0  0
    6.1840   -6.4290   -0.3850 C   0  0  0  0  0  2  0  0  0  0  0  0
    9.5710   -2.3740    2.4100 S   0  0  0  0  0  0  0  0  0  0  0  0
    8.8960   -0.8160    1.7940 C   0  0  0  0  0  2  0  0  0  0  0  0
    9.6670   -0.1420    0.6850 C   0  0  0  0  0  0  0  0  0  0  0  0
   10.0340   -0.8810   -0.4540 C   0  0  0  0  0  3  0  0  0  0  0  0
   10.7270   -0.2800   -1.5080 C   0  0  0  0  0  3  0  0  0  0  0  0
   11.0580    1.0720   -1.4470 C   0  0  0  0  0  3  0  0  0  0  0  0
   10.6850    1.8220   -0.3250 C   0  0  0  0  0  0  0  0  0  0  0  0
    9.9880    1.2240    0.7370 C   0  0  0  0  0  3  0  0  0  0  0  0
   11.0230    3.2490   -0.2630 N   0  0  0  0  0  0  0  0  0  0  0  0
   10.1390    4.0350    0.1080 O   0  0  0  0  0  0  0  0  0  0  0  0
   12.1710    3.5850   -0.5850 O   0  0  0  0  0  0  0  0  0  0  0  0
  1  2  2  0  0  0  0
  2  3  1  0  0  0  0
  2  9  1  0  0  0  0
  4  3  2  0  0  0  0
  4 18  1  0  0  0  0
  5  4  1  0  0  0  0
  6  5  1  0  0  0  0
  6  1  1  0  0  0  0
  7  6  2  0  0  0  0
  8  5  1  0  0  0  0
  9 15  2  0  0  0  0
  9 10  1  0  0  0  0
 10 11  2  0  0  0  0
 11 12  1  0  0  0  0
 12 13  1  0  0  0  0
 14 12  2  0  0  0  0
 15 14  1  0  0  0  0
 16 17  1  0  0  0  0
 17  1  1  0  0  0  0
 19 18  1  0  0  0  0
 20 25  1  0  0  0  0
 20 19  1  0  0  0  0
 21 20  2  0  0  0  0
 22 23  2  0  0  0  0
 22 21  1  0  0  0  0
 23 24  1  0  0  0  0
 24 26  1  0  0  0  0
 24 25  2  0  0  0  0
 26 27  2  0  0  0  0
 28 26  2  0  0  0  0
M  END
>  <minimizedAffinity>
-7.60261774

$$$$
