
 OpenBabel09122222393D

 28 30  0  0  0  0  0  0  0  0999 V2000
    9.3230   -1.1600    2.1270 C   0  0  0  0  0  0  0  0  0  0  0  0
    9.0480   -2.3250    2.7410 C   0  0  0  0  0  0  0  0  0  0  0  0
    8.8960   -3.5260    2.0800 N   0  0  0  0  0  0  0  0  0  0  0  0
    9.0870   -3.5350    0.8050 C   0  0  0  0  0  0  0  0  0  0  0  0
    9.4220   -2.4330    0.0860 N   0  0  0  0  0  0  0  0  0  0  0  0
    9.5030   -1.2000    0.6610 C   0  0  0  0  0  0  0  0  0  0  0  0
    9.7220   -0.2000   -0.0130 O   0  0  0  0  0  0  0  0  0  0  0  0
    9.5930   -2.4880   -0.9030 H   0  0  0  0  0  0  0  0  0  0  0  0
    8.9840   -2.3990    4.2160 C   0  0  0  0  0  0  0  0  0  0  0  0
    7.8090   -2.7660    4.8850 C   0  0  0  0  0  3  0  0  0  0  0  0
    7.7770   -2.8080    6.2820 C   0  0  0  0  0  3  0  0  0  0  0  0
    8.9210   -2.4900    7.0130 C   0  0  0  0  0  0  0  0  0  0  0  0
    8.8760   -2.5450    8.9020 Br  0  0  0  0  0  0  0  0  0  0  0  0
   10.1010   -2.1380    6.3610 C   0  0  0  0  0  3  0  0  0  0  0  0
   10.1320   -2.0970    4.9660 C   0  0  0  0  0  3  0  0  0  0  0  0
    9.7640    1.2530    3.4360 N   0  0  0  0  0  1  0  0  0  0  0  0
    9.5640    0.1590    2.8420 C   0  0  0  0  0  2  0  0  0  0  0  0
    8.9780   -5.0270   -0.0710 S   0  0  0  0  0  0  0  0  0  0  0  0
    7.3150   -5.0120   -0.7770 C   0  0  0  0  0  2  0  0  0  0  0  0
    6.2810   -5.8600   -0.0750 C   0  0  0  0  0  0  0  0  0  0  0  0
    5.5240   -6.7860   -0.8150 C   0  0  0  0  0  3  0  0  0  0  0  0
    4.5770   -7.6020   -0.1910 C   0  0  0  0  0  3  0  0  0  0  0  0
    4.3760   -7.5140    1.1850 C   0  0  0  0  0  3  0  0  0  0  0  0
    5.1350   -6.6080    1.9350 C   0  0  0  0  0  0  0  0  0  0  0  0
    6.0880   -5.7850    1.3130 C   0  0  0  0  0  3  0  0  0  0  0  0
    4.9330   -6.5200    3.3870 N   0  0  0  0  0  0  0  0  0  0  0  0
    4.4730   -7.5160    3.9640 O   0  0  0  0  0  0  0  0  0  0  0  0
    5.2320   -5.4580    3.9490 O   0  0  0  0  0  0  0  0  0  0  0  0
  1  2  2  0  0  0  0
  1 17  1  0  0  0  0
  2  9  1  0  0  0  0
  3  2  1  0  0  0  0
  4  3  2  0  0  0  0
  5  6  1  0  0  0  0
  5  4  1  0  0  0  0
  6  1  1  0  0  0  0
  7  6  2  0  0  0  0
  8  5  1  0  0  0  0
  9 10  2  0  0  0  0
  9 15  1  0  0  0  0
 10 11  1  0  0  0  0
 11 12  2  0  0  0  0
 12 13  1  0  0  0  0
 14 12  1  0  0  0  0
 15 14  2  0  0  0  0
 17 16  1  0  0  0  0
 18  4  1  0  0  0  0
 19 20  1  0  0  0  0
 19 18  1  0  0  0  0
 20 25  1  0  0  0  0
 21 22  1  0  0  0  0
 21 20  2  0  0  0  0
 22 23  2  0  0  0  0
 23 24  1  0  0  0  0
 24 26  1  0  0  0  0
 25 24  2  0  0  0  0
 26 28  2  0  0  0  0
 26 27  2  0  0  0  0
M  END
>  <minimizedAffinity>
-7.15740204

$$$$
