
 OpenBabel09122222393D

 28 30  0  0  0  0  0  0  0  0999 V2000
    7.0910   -5.5010    0.3040 C   0  0  0  0  0  0  0  0  0  0  0  0
    6.9310   -5.2000    1.6050 C   0  0  0  0  0  0  0  0  0  0  0  0
    7.7300   -4.3090    2.2920 N   0  0  0  0  0  0  0  0  0  0  0  0
    8.6430   -3.6880    1.6260 C   0  0  0  0  0  0  0  0  0  0  0  0
    8.8600   -3.8690    0.2990 N   0  0  0  0  0  0  0  0  0  0  0  0
    8.1680   -4.7970   -0.4220 C   0  0  0  0  0  0  0  0  0  0  0  0
    8.4320   -5.0100   -1.6000 O   0  0  0  0  0  0  0  0  0  0  0  0
    9.5630   -3.3420   -0.1910 H   0  0  0  0  0  0  0  0  0  0  0  0
    5.7970   -5.7570    2.3710 C   0  0  0  0  0  0  0  0  0  0  0  0
    4.8240   -4.9330    2.9520 C   0  0  0  0  0  3  0  0  0  0  0  0
    3.7740   -5.4910    3.6870 C   0  0  0  0  0  3  0  0  0  0  0  0
    3.6900   -6.8750    3.8360 C   0  0  0  0  0  0  0  0  0  0  0  0
    2.2710   -7.6290    4.8310 Br  0  0  0  0  0  0  0  0  0  0  0  0
    4.6410   -7.7080    3.2510 C   0  0  0  0  0  3  0  0  0  0  0  0
    5.6900   -7.1500    2.5170 C   0  0  0  0  0  3  0  0  0  0  0  0
    5.4240   -7.1910   -1.1450 N   0  0  0  0  0  1  0  0  0  0  0  0
    6.1800   -6.4240   -0.4880 C   0  0  0  0  0  2  0  0  0  0  0  0
    9.6320   -2.5060    2.4180 S   0  0  0  0  0  0  0  0  0  0  0  0
    8.8230   -0.9310    2.0600 C   0  0  0  0  0  2  0  0  0  0  0  0
    9.5010   -0.0450    1.0410 C   0  0  0  0  0  0  0  0  0  0  0  0
    9.6950    1.3180    1.3250 C   0  0  0  0  0  3  0  0  0  0  0  0
   10.3400    2.1570    0.4140 C   0  0  0  0  0  3  0  0  0  0  0  0
   10.8110    1.6480   -0.7940 C   0  0  0  0  0  3  0  0  0  0  0  0
   10.6380    0.2880   -1.0820 C   0  0  0  0  0  0  0  0  0  0  0  0
    9.9910   -0.5600   -0.1690 C   0  0  0  0  0  3  0  0  0  0  0  0
   11.1430   -0.2540   -2.3500 N   0  0  0  0  0  0  0  0  0  0  0  0
   10.3110   -0.6650   -3.1710 O   0  0  0  0  0  0  0  0  0  0  0  0
   12.3690   -0.2690   -2.5240 O   0  0  0  0  0  0  0  0  0  0  0  0
  1  2  2  0  0  0  0
  2  3  1  0  0  0  0
  2  9  1  0  0  0  0
  4  3  2  0  0  0  0
  4 18  1  0  0  0  0
  5  4  1  0  0  0  0
  6  5  1  0  0  0  0
  6  1  1  0  0  0  0
  7  6  2  0  0  0  0
  8  5  1  0  0  0  0
  9 15  2  0  0  0  0
  9 10  1  0  0  0  0
 10 11  2  0  0  0  0
 11 12  1  0  0  0  0
 12 13  1  0  0  0  0
 14 12  2  0  0  0  0
 15 14  1  0  0  0  0
 16 17  1  0  0  0  0
 17  1  1  0  0  0  0
 19 18  1  0  0  0  0
 20 21  1  0  0  0  0
 20 19  1  0  0  0  0
 22 21  2  0  0  0  0
 23 22  1  0  0  0  0
 24 23  2  0  0  0  0
 24 25  1  0  0  0  0
 25 20  2  0  0  0  0
 26 24  1  0  0  0  0
 27 26  2  0  0  0  0
 28 26  2  0  0  0  0
M  END
>  <minimizedAffinity>
-8.09472942

$$$$
