
 OpenBabel09122222393D

 28 30  0  0  0  0  0  0  0  0999 V2000
   11.0700    0.6530   -1.3090 C   0  0  0  0  0  0  0  0  0  0  0  0
   10.4990    1.2140   -0.2270 C   0  0  0  0  0  0  0  0  0  0  0  0
    9.7620    0.5130    0.7050 N   0  0  0  0  0  0  0  0  0  0  0  0
    9.6690   -0.7640    0.5550 C   0  0  0  0  0  0  0  0  0  0  0  0
   10.2480   -1.4460   -0.4650 N   0  0  0  0  0  0  0  0  0  0  0  0
   10.9150   -0.8080   -1.4680 C   0  0  0  0  0  0  0  0  0  0  0  0
   11.3600   -1.4260   -2.4280 O   0  0  0  0  0  0  0  0  0  0  0  0
   10.1770   -2.4470   -0.5300 H   0  0  0  0  0  0  0  0  0  0  0  0
   10.7160    2.6440    0.0790 C   0  0  0  0  0  0  0  0  0  0  0  0
    9.6730    3.5770    0.0180 C   0  0  0  0  0  3  0  0  0  0  0  0
    9.9160    4.9260    0.2960 C   0  0  0  0  0  3  0  0  0  0  0  0
   11.2000    5.3430    0.6420 C   0  0  0  0  0  0  0  0  0  0  0  0
   11.5280    7.1660    1.0160 Br  0  0  0  0  0  0  0  0  0  0  0  0
   12.2440    4.4240    0.7220 C   0  0  0  0  0  3  0  0  0  0  0  0
   12.0010    3.0770    0.4450 C   0  0  0  0  0  3  0  0  0  0  0  0
   12.6680    2.0090   -3.1370 N   0  0  0  0  0  1  0  0  0  0  0  0
   11.9430    1.3940   -2.3080 C   0  0  0  0  0  2  0  0  0  0  0  0
    8.8150   -1.7080    1.7310 S   0  0  0  0  0  0  0  0  0  0  0  0
    9.3150   -3.4100    1.3900 C   0  0  0  0  0  2  0  0  0  0  0  0
    8.2470   -4.3250    0.8390 C   0  0  0  0  0  0  0  0  0  0  0  0
    8.2090   -4.5960   -0.5400 C   0  0  0  0  0  3  0  0  0  0  0  0
    7.2490   -5.4570   -1.0770 C   0  0  0  0  0  3  0  0  0  0  0  0
    6.3150   -6.0700   -0.2450 C   0  0  0  0  0  3  0  0  0  0  0  0
    6.3530   -5.8210    1.1330 C   0  0  0  0  0  0  0  0  0  0  0  0
    7.3160   -4.9560    1.6780 C   0  0  0  0  0  3  0  0  0  0  0  0
    5.3760   -6.4730    2.0140 N   0  0  0  0  0  0  0  0  0  0  0  0
    4.4420   -7.0890    1.4810 O   0  0  0  0  0  0  0  0  0  0  0  0
    5.5430   -6.3700    3.2370 O   0  0  0  0  0  0  0  0  0  0  0  0
  1  2  2  0  0  0  0
  2  9  1  0  0  0  0
  2  3  1  0  0  0  0
  4  3  2  0  0  0  0
  4 18  1  0  0  0  0
  5  4  1  0  0  0  0
  6  1  1  0  0  0  0
  6  5  1  0  0  0  0
  7  6  2  0  0  0  0
  8  5  1  0  0  0  0
  9 15  1  0  0  0  0
 10  9  2  0  0  0  0
 10 11  1  0  0  0  0
 11 12  2  0  0  0  0
 12 14  1  0  0  0  0
 12 13  1  0  0  0  0
 15 14  2  0  0  0  0
 16 17  1  0  0  0  0
 17  1  1  0  0  0  0
 19 18  1  0  0  0  0
 20 19  1  0  0  0  0
 20 25  1  0  0  0  0
 21 20  2  0  0  0  0
 22 21  1  0  0  0  0
 22 23  2  0  0  0  0
 23 24  1  0  0  0  0
 24 25  2  0  0  0  0
 24 26  1  0  0  0  0
 26 28  2  0  0  0  0
 27 26  2  0  0  0  0
M  END
>  <minimizedAffinity>
-7.67704916

$$$$
