
 OpenBabel09122219253D

 28 30  0  0  0  0  0  0  0  0999 V2000
    7.0910   -5.5010    0.3040 C   0  0  0  0  0  0  0  0  0  0  0  0
    6.9310   -5.2000    1.6050 C   0  0  0  0  0  0  0  0  0  0  0  0
    7.7300   -4.3090    2.2920 N   0  0  0  0  0  0  0  0  0  0  0  0
    8.6430   -3.6880    1.6260 C   0  0  0  0  0  0  0  0  0  0  0  0
    8.8600   -3.8690    0.2990 N   0  0  0  0  0  0  0  0  0  0  0  0
    8.1680   -4.7970   -0.4220 C   0  0  0  0  0  0  0  0  0  0  0  0
    8.4320   -5.0100   -1.6000 O   0  0  0  0  0  0  0  0  0  0  0  0
    9.5630   -3.3420   -0.1910 H   0  0  0  0  0  0  0  0  0  0  0  0
    5.7970   -5.7570    2.3710 C   0  0  0  0  0  0  0  0  0  0  0  0
    4.8240   -4.9330    2.9520 C   0  0  0  0  0  3  0  0  0  0  0  0
    3.7740   -5.4910    3.6870 C   0  0  0  0  0  3  0  0  0  0  0  0
    3.6900   -6.8750    3.8360 C   0  0  0  0  0  0  0  0  0  0  0  0
    2.2710   -7.6290    4.8310 Br  0  0  0  0  0  0  0  0  0  0  0  0
    4.6410   -7.7080    3.2510 C   0  0  0  0  0  3  0  0  0  0  0  0
    5.6900   -7.1500    2.5170 C   0  0  0  0  0  3  0  0  0  0  0  0
    5.4240   -7.1910   -1.1450 N   0  0  0  0  0  1  0  0  0  0  0  0
    6.1800   -6.4240   -0.4880 C   0  0  0  0  0  2  0  0  0  0  0  0
    9.6320   -2.5060    2.4180 S   0  0  0  0  0  0  0  0  0  0  0  0
    8.8230   -0.9310    2.0600 C   0  0  0  0  0  2  0  0  0  0  0  0
    9.5010   -0.0450    1.0410 C   0  0  0  0  0  0  0  0  0  0  0  0
    9.6950    1.3180    1.3250 C   0  0  0  0  0  3  0  0  0  0  0  0
   10.3400    2.1570    0.4140 C   0  0  0  0  0  3  0  0  0  0  0  0
   10.8110    1.6480   -0.7940 C   0  0  0  0  0  3  0  0  0  0  0  0
   10.6380    0.2880   -1.0820 C   0  0  0  0  0  0  0  0  0  0  0  0
    9.9910   -0.5600   -0.1690 C   0  0  0  0  0  3  0  0  0  0  0  0
   11.1430   -0.2540   -2.3500 N   0  0  0  0  0  0  0  0  0  0  0  0
   10.3110   -0.6650   -3.1710 O   0  0  0  0  0  0  0  0  0  0  0  0
   12.3690   -0.2690   -2.5240 O   0  0  0  0  0  0  0  0  0  0  0  0
  1  2  2  0  0  0  0
  2  3  1  0  0  0  0
  2  9  1  0  0  0  0
  4  3  2  0  0  0  0
  4 18  1  0  0  0  0
  5  4  1  0  0  0  0
  6  5  1  0  0  0  0
  6  1  1  0  0  0  0
  7  6  2  0  0  0  0
  8  5  1  0  0  0  0
  9 15  2  0  0  0  0
  9 10  1  0  0  0  0
 10 11  2  0  0  0  0
 11 12  1  0  0  0  0
 12 13  1  0  0  0  0
 14 12  2  0  0  0  0
 15 14  1  0  0  0  0
 16 17  1  0  0  0  0
 17  1  1  0  0  0  0
 19 18  1  0  0  0  0
 20 21  1  0  0  0  0
 20 19  1  0  0  0  0
 22 21  2  0  0  0  0
 23 22  1  0  0  0  0
 24 23  2  0  0  0  0
 24 25  1  0  0  0  0
 25 20  2  0  0  0  0
 26 24  1  0  0  0  0
 27 26  2  0  0  0  0
 28 26  2  0  0  0  0
M  END
>  <minimizedAffinity>
-8.09472942

$$$$

 OpenBabel09122219253D

 28 30  0  0  0  0  0  0  0  0999 V2000
   11.0700    0.6530   -1.3090 C   0  0  0  0  0  0  0  0  0  0  0  0
   10.4990    1.2140   -0.2270 C   0  0  0  0  0  0  0  0  0  0  0  0
    9.7620    0.5130    0.7050 N   0  0  0  0  0  0  0  0  0  0  0  0
    9.6690   -0.7640    0.5550 C   0  0  0  0  0  0  0  0  0  0  0  0
   10.2480   -1.4460   -0.4650 N   0  0  0  0  0  0  0  0  0  0  0  0
   10.9150   -0.8080   -1.4680 C   0  0  0  0  0  0  0  0  0  0  0  0
   11.3600   -1.4260   -2.4280 O   0  0  0  0  0  0  0  0  0  0  0  0
   10.1770   -2.4470   -0.5300 H   0  0  0  0  0  0  0  0  0  0  0  0
   10.7160    2.6440    0.0790 C   0  0  0  0  0  0  0  0  0  0  0  0
    9.6730    3.5770    0.0180 C   0  0  0  0  0  3  0  0  0  0  0  0
    9.9160    4.9260    0.2960 C   0  0  0  0  0  3  0  0  0  0  0  0
   11.2000    5.3430    0.6420 C   0  0  0  0  0  0  0  0  0  0  0  0
   11.5280    7.1660    1.0160 Br  0  0  0  0  0  0  0  0  0  0  0  0
   12.2440    4.4240    0.7220 C   0  0  0  0  0  3  0  0  0  0  0  0
   12.0010    3.0770    0.4450 C   0  0  0  0  0  3  0  0  0  0  0  0
   12.6680    2.0090   -3.1370 N   0  0  0  0  0  1  0  0  0  0  0  0
   11.9430    1.3940   -2.3080 C   0  0  0  0  0  2  0  0  0  0  0  0
    8.8150   -1.7080    1.7310 S   0  0  0  0  0  0  0  0  0  0  0  0
    9.3150   -3.4100    1.3900 C   0  0  0  0  0  2  0  0  0  0  0  0
    8.2470   -4.3250    0.8390 C   0  0  0  0  0  0  0  0  0  0  0  0
    8.2090   -4.5960   -0.5400 C   0  0  0  0  0  3  0  0  0  0  0  0
    7.2490   -5.4570   -1.0770 C   0  0  0  0  0  3  0  0  0  0  0  0
    6.3150   -6.0700   -0.2450 C   0  0  0  0  0  3  0  0  0  0  0  0
    6.3530   -5.8210    1.1330 C   0  0  0  0  0  0  0  0  0  0  0  0
    7.3160   -4.9560    1.6780 C   0  0  0  0  0  3  0  0  0  0  0  0
    5.3760   -6.4730    2.0140 N   0  0  0  0  0  0  0  0  0  0  0  0
    4.4420   -7.0890    1.4810 O   0  0  0  0  0  0  0  0  0  0  0  0
    5.5430   -6.3700    3.2370 O   0  0  0  0  0  0  0  0  0  0  0  0
  1  2  2  0  0  0  0
  2  9  1  0  0  0  0
  2  3  1  0  0  0  0
  4  3  2  0  0  0  0
  4 18  1  0  0  0  0
  5  4  1  0  0  0  0
  6  1  1  0  0  0  0
  6  5  1  0  0  0  0
  7  6  2  0  0  0  0
  8  5  1  0  0  0  0
  9 15  1  0  0  0  0
 10  9  2  0  0  0  0
 10 11  1  0  0  0  0
 11 12  2  0  0  0  0
 12 14  1  0  0  0  0
 12 13  1  0  0  0  0
 15 14  2  0  0  0  0
 16 17  1  0  0  0  0
 17  1  1  0  0  0  0
 19 18  1  0  0  0  0
 20 19  1  0  0  0  0
 20 25  1  0  0  0  0
 21 20  2  0  0  0  0
 22 21  1  0  0  0  0
 22 23  2  0  0  0  0
 23 24  1  0  0  0  0
 24 25  2  0  0  0  0
 24 26  1  0  0  0  0
 26 28  2  0  0  0  0
 27 26  2  0  0  0  0
M  END
>  <minimizedAffinity>
-7.67704916

$$$$

 OpenBabel09122219253D

 28 30  0  0  0  0  0  0  0  0999 V2000
    5.8960   -5.8290    2.4130 C   0  0  0  0  0  0  0  0  0  0  0  0
    6.1350   -4.5900    2.8790 C   0  0  0  0  0  0  0  0  0  0  0  0
    7.2020   -3.8120    2.4800 N   0  0  0  0  0  0  0  0  0  0  0  0
    7.9770   -4.2830    1.5640 C   0  0  0  0  0  0  0  0  0  0  0  0
    7.8020   -5.4970    0.9820 N   0  0  0  0  0  0  0  0  0  0  0  0
    6.8230   -6.3540    1.3890 C   0  0  0  0  0  0  0  0  0  0  0  0
    6.7280   -7.4800    0.9150 O   0  0  0  0  0  0  0  0  0  0  0  0
    8.4110   -5.8170    0.2490 H   0  0  0  0  0  0  0  0  0  0  0  0
    5.1840   -3.9390    3.8040 C   0  0  0  0  0  0  0  0  0  0  0  0
    3.9460   -3.4530    3.3660 C   0  0  0  0  0  3  0  0  0  0  0  0
    3.0770   -2.8240    4.2640 C   0  0  0  0  0  3  0  0  0  0  0  0
    3.4430   -2.6880    5.6030 C   0  0  0  0  0  0  0  0  0  0  0  0
    2.2690   -1.8360    6.8150 Br  0  0  0  0  0  0  0  0  0  0  0  0
    4.6640   -3.1800    6.0560 C   0  0  0  0  0  3  0  0  0  0  0  0
    5.5310   -3.8070    5.1590 C   0  0  0  0  0  3  0  0  0  0  0  0
    3.6870   -7.3760    3.0960 N   0  0  0  0  0  1  0  0  0  0  0  0
    4.6890   -6.6750    2.7860 C   0  0  0  0  0  2  0  0  0  0  0  0
    9.2940   -3.3240    0.9720 S   0  0  0  0  0  0  0  0  0  0  0  0
    8.9880   -1.6770    1.6480 C   0  0  0  0  0  2  0  0  0  0  0  0
    9.5300   -0.5140    0.8520 C   0  0  0  0  0  0  0  0  0  0  0  0
    9.5530    0.7690    1.4250 C   0  0  0  0  0  3  0  0  0  0  0  0
   10.0700    1.8610    0.7230 C   0  0  0  0  0  3  0  0  0  0  0  0
   10.5830    1.6880   -0.5610 C   0  0  0  0  0  3  0  0  0  0  0  0
   10.5810    0.4110   -1.1360 C   0  0  0  0  0  0  0  0  0  0  0  0
   10.0630   -0.6890   -0.4350 C   0  0  0  0  0  3  0  0  0  0  0  0
   11.1300    0.2230   -2.4850 N   0  0  0  0  0  0  0  0  0  0  0  0
   10.5780   -0.6070   -3.2210 O   0  0  0  0  0  0  0  0  0  0  0  0
   12.1130    0.9040   -2.8080 O   0  0  0  0  0  0  0  0  0  0  0  0
  1 17  1  0  0  0  0
  1  2  2  0  0  0  0
  2  9  1  0  0  0  0
  3  2  1  0  0  0  0
  4  3  2  0  0  0  0
  5  6  1  0  0  0  0
  5  4  1  0  0  0  0
  6  1  1  0  0  0  0
  7  6  2  0  0  0  0
  8  5  1  0  0  0  0
  9 15  1  0  0  0  0
 10  9  2  0  0  0  0
 10 11  1  0  0  0  0
 11 12  2  0  0  0  0
 12 14  1  0  0  0  0
 12 13  1  0  0  0  0
 15 14  2  0  0  0  0
 17 16  1  0  0  0  0
 18  4  1  0  0  0  0
 18 19  1  0  0  0  0
 20 21  1  0  0  0  0
 20 19  1  0  0  0  0
 22 21  2  0  0  0  0
 23 22  1  0  0  0  0
 24 23  2  0  0  0  0
 24 25  1  0  0  0  0
 25 20  2  0  0  0  0
 26 24  1  0  0  0  0
 27 26  2  0  0  0  0
 28 26  2  0  0  0  0
M  END
>  <minimizedAffinity>
-7.63236427

$$$$

 OpenBabel09122219253D

 28 30  0  0  0  0  0  0  0  0999 V2000
    7.0780   -5.4680    0.3820 C   0  0  0  0  0  0  0  0  0  0  0  0
    6.9000   -5.1180    1.6680 C   0  0  0  0  0  0  0  0  0  0  0  0
    7.6830   -4.1950    2.3300 N   0  0  0  0  0  0  0  0  0  0  0  0
    8.6000   -3.5930    1.6520 C   0  0  0  0  0  0  0  0  0  0  0  0
    8.8370   -3.8240    0.3360 N   0  0  0  0  0  0  0  0  0  0  0  0
    8.1600   -4.7840   -0.3570 C   0  0  0  0  0  0  0  0  0  0  0  0
    8.4410   -5.0420   -1.5220 O   0  0  0  0  0  0  0  0  0  0  0  0
    9.5420   -3.3120   -0.1660 H   0  0  0  0  0  0  0  0  0  0  0  0
    5.7590   -5.6540    2.4410 C   0  0  0  0  0  0  0  0  0  0  0  0
    4.8060   -4.8110    3.0270 C   0  0  0  0  0  3  0  0  0  0  0  0
    3.7500   -5.3490    3.7680 C   0  0  0  0  0  3  0  0  0  0  0  0
    3.6400   -6.7310    3.9180 C   0  0  0  0  0  0  0  0  0  0  0  0
    2.2130   -7.4580    4.9210 Br  0  0  0  0  0  0  0  0  0  0  0  0
    4.5720   -7.5820    3.3290 C   0  0  0  0  0  3  0  0  0  0  0  0
    5.6270   -7.0440    2.5880 C   0  0  0  0  0  3  0  0  0  0  0  0
    5.4420   -7.2260   -1.0210 N   0  0  0  0  0  1  0  0  0  0  0  0
    6.1840   -6.4290   -0.3850 C   0  0  0  0  0  2  0  0  0  0  0  0
    9.5710   -2.3740    2.4100 S   0  0  0  0  0  0  0  0  0  0  0  0
    8.8960   -0.8160    1.7940 C   0  0  0  0  0  2  0  0  0  0  0  0
    9.6670   -0.1420    0.6850 C   0  0  0  0  0  0  0  0  0  0  0  0
   10.0340   -0.8810   -0.4540 C   0  0  0  0  0  3  0  0  0  0  0  0
   10.7270   -0.2800   -1.5080 C   0  0  0  0  0  3  0  0  0  0  0  0
   11.0580    1.0720   -1.4470 C   0  0  0  0  0  3  0  0  0  0  0  0
   10.6850    1.8220   -0.3250 C   0  0  0  0  0  0  0  0  0  0  0  0
    9.9880    1.2240    0.7370 C   0  0  0  0  0  3  0  0  0  0  0  0
   11.0230    3.2490   -0.2630 N   0  0  0  0  0  0  0  0  0  0  0  0
   10.1390    4.0350    0.1080 O   0  0  0  0  0  0  0  0  0  0  0  0
   12.1710    3.5850   -0.5850 O   0  0  0  0  0  0  0  0  0  0  0  0
  1  2  2  0  0  0  0
  2  3  1  0  0  0  0
  2  9  1  0  0  0  0
  4  3  2  0  0  0  0
  4 18  1  0  0  0  0
  5  4  1  0  0  0  0
  6  5  1  0  0  0  0
  6  1  1  0  0  0  0
  7  6  2  0  0  0  0
  8  5  1  0  0  0  0
  9 15  2  0  0  0  0
  9 10  1  0  0  0  0
 10 11  2  0  0  0  0
 11 12  1  0  0  0  0
 12 13  1  0  0  0  0
 14 12  2  0  0  0  0
 15 14  1  0  0  0  0
 16 17  1  0  0  0  0
 17  1  1  0  0  0  0
 19 18  1  0  0  0  0
 20 25  1  0  0  0  0
 20 19  1  0  0  0  0
 21 20  2  0  0  0  0
 22 23  2  0  0  0  0
 22 21  1  0  0  0  0
 23 24  1  0  0  0  0
 24 26  1  0  0  0  0
 24 25  2  0  0  0  0
 26 27  2  0  0  0  0
 28 26  2  0  0  0  0
M  END
>  <minimizedAffinity>
-7.60261774

$$$$

 OpenBabel09122219253D

 28 30  0  0  0  0  0  0  0  0999 V2000
    3.9270   -2.8900    5.9240 C   0  0  0  0  0  0  0  0  0  0  0  0
    4.9510   -3.7610    5.8620 C   0  0  0  0  0  0  0  0  0  0  0  0
    5.0360   -4.7840    4.9400 N   0  0  0  0  0  0  0  0  0  0  0  0
    4.1040   -4.8680    4.0530 C   0  0  0  0  0  0  0  0  0  0  0  0
    3.0520   -4.0140    3.9840 N   0  0  0  0  0  0  0  0  0  0  0  0
    2.8590   -3.0360    4.9140 C   0  0  0  0  0  0  0  0  0  0  0  0
    1.8600   -2.3260    4.8900 O   0  0  0  0  0  0  0  0  0  0  0  0
    2.3610   -4.0940    3.2570 H   0  0  0  0  0  0  0  0  0  0  0  0
    6.1240   -3.6050    6.7480 C   0  0  0  0  0  0  0  0  0  0  0  0
    6.1700   -4.1920    8.0190 C   0  0  0  0  0  3  0  0  0  0  0  0
    7.2870   -4.0090    8.8400 C   0  0  0  0  0  3  0  0  0  0  0  0
    8.3630   -3.2470    8.3890 C   0  0  0  0  0  0  0  0  0  0  0  0
    9.8720   -2.9990    9.5000 Br  0  0  0  0  0  0  0  0  0  0  0  0
    8.3380   -2.6700    7.1210 C   0  0  0  0  0  3  0  0  0  0  0  0
    7.2230   -2.8530    6.3010 C   0  0  0  0  0  3  0  0  0  0  0  0
    3.7850   -0.7400    7.6820 N   0  0  0  0  0  1  0  0  0  0  0  0
    3.8490   -1.7150    6.8850 C   0  0  0  0  0  2  0  0  0  0  0  0
    4.1910   -6.0890    2.8260 S   0  0  0  0  0  0  0  0  0  0  0  0
    5.9600   -6.3860    2.6130 C   0  0  0  0  0  2  0  0  0  0  0  0
    6.5630   -5.9350    1.3030 C   0  0  0  0  0  0  0  0  0  0  0  0
    5.9000   -6.2250    0.0980 C   0  0  0  0  0  3  0  0  0  0  0  0
    6.4190   -5.8010   -1.1280 C   0  0  0  0  0  3  0  0  0  0  0  0
    7.6060   -5.0710   -1.1710 C   0  0  0  0  0  3  0  0  0  0  0  0
    8.2670   -4.7630    0.0250 C   0  0  0  0  0  0  0  0  0  0  0  0
    7.7490   -5.1860    1.2590 C   0  0  0  0  0  3  0  0  0  0  0  0
    9.5120   -3.9850   -0.0160 N   0  0  0  0  0  0  0  0  0  0  0  0
   10.1700   -4.0090   -1.0660 O   0  0  0  0  0  0  0  0  0  0  0  0
    9.8310   -3.3530    1.0000 O   0  0  0  0  0  0  0  0  0  0  0  0
  1 17  1  0  0  0  0
  2  1  2  0  0  0  0
  2  9  1  0  0  0  0
  3  2  1  0  0  0  0
  4  3  2  0  0  0  0
  5  4  1  0  0  0  0
  5  6  1  0  0  0  0
  6  1  1  0  0  0  0
  7  6  2  0  0  0  0
  8  5  1  0  0  0  0
  9 10  1  0  0  0  0
 10 11  2  0  0  0  0
 12 11  1  0  0  0  0
 12 13  1  0  0  0  0
 14 12  2  0  0  0  0
 15  9  2  0  0  0  0
 15 14  1  0  0  0  0
 17 16  1  0  0  0  0
 18  4  1  0  0  0  0
 19 18  1  0  0  0  0
 20 19  1  0  0  0  0
 21 20  2  0  0  0  0
 22 21  1  0  0  0  0
 23 22  2  0  0  0  0
 23 24  1  0  0  0  0
 24 25  2  0  0  0  0
 25 20  1  0  0  0  0
 26 24  1  0  0  0  0
 26 28  2  0  0  0  0
 27 26  2  0  0  0  0
M  END
>  <minimizedAffinity>
-7.48358107

$$$$

 OpenBabel09122219253D

 28 30  0  0  0  0  0  0  0  0999 V2000
    9.0080   -3.7120    0.7270 C   0  0  0  0  0  0  0  0  0  0  0  0
    8.4530   -3.5430    1.9410 C   0  0  0  0  0  0  0  0  0  0  0  0
    7.3480   -4.2400    2.3850 N   0  0  0  0  0  0  0  0  0  0  0  0
    6.8600   -5.1450    1.6080 C   0  0  0  0  0  0  0  0  0  0  0  0
    7.3690   -5.4420    0.3850 N   0  0  0  0  0  0  0  0  0  0  0  0
    8.4030   -4.7340   -0.1520 C   0  0  0  0  0  0  0  0  0  0  0  0
    8.7980   -4.9550   -1.2910 O   0  0  0  0  0  0  0  0  0  0  0  0
    6.9780   -6.1770   -0.1780 H   0  0  0  0  0  0  0  0  0  0  0  0
    9.0750   -2.6390    2.9320 C   0  0  0  0  0  0  0  0  0  0  0  0
    9.6680   -3.1250    4.1040 C   0  0  0  0  0  3  0  0  0  0  0  0
   10.2290   -2.2410    5.0290 C   0  0  0  0  0  3  0  0  0  0  0  0
   10.2070   -0.8690    4.7810 C   0  0  0  0  0  0  0  0  0  0  0  0
   10.9650    0.3260    6.0340 Br  0  0  0  0  0  0  0  0  0  0  0  0
    9.6340   -0.3720    3.6130 C   0  0  0  0  0  3  0  0  0  0  0  0
    9.0730   -1.2560    2.6890 C   0  0  0  0  0  3  0  0  0  0  0  0
   11.3090   -2.4220   -0.1530 N   0  0  0  0  0  1  0  0  0  0  0  0
   10.2660   -3.0070    0.2460 C   0  0  0  0  0  2  0  0  0  0  0  0
    5.5150   -6.1010    2.1390 S   0  0  0  0  0  0  0  0  0  0  0  0
    4.1850   -4.9050    2.3870 C   0  0  0  0  0  2  0  0  0  0  0  0
    4.0050   -4.3840    3.7930 C   0  0  0  0  0  0  0  0  0  0  0  0
    4.7880   -4.9100    4.8350 C   0  0  0  0  0  3  0  0  0  0  0  0
    4.6620   -4.4320    6.1420 C   0  0  0  0  0  3  0  0  0  0  0  0
    3.7570   -3.4130    6.4290 C   0  0  0  0  0  3  0  0  0  0  0  0
    2.9820   -2.8690    5.3970 C   0  0  0  0  0  0  0  0  0  0  0  0
    3.1050   -3.3450    4.0820 C   0  0  0  0  0  3  0  0  0  0  0  0
    2.0350   -1.7870    5.6950 N   0  0  0  0  0  0  0  0  0  0  0  0
    2.1270   -1.2300    6.7990 O   0  0  0  0  0  0  0  0  0  0  0  0
    1.2000   -1.4960    4.8290 O   0  0  0  0  0  0  0  0  0  0  0  0
  1  2  2  0  0  0  0
  2  3  1  0  0  0  0
  2  9  1  0  0  0  0
  4 18  1  0  0  0  0
  4  3  2  0  0  0  0
  5  4  1  0  0  0  0
  6  5  1  0  0  0  0
  6  1  1  0  0  0  0
  7  6  2  0  0  0  0
  8  5  1  0  0  0  0
  9 10  1  0  0  0  0
 10 11  2  0  0  0  0
 12 11  1  0  0  0  0
 12 13  1  0  0  0  0
 14 12  2  0  0  0  0
 15  9  2  0  0  0  0
 15 14  1  0  0  0  0
 16 17  1  0  0  0  0
 17  1  1  0  0  0  0
 18 19  1  0  0  0  0
 19 20  1  0  0  0  0
 20 25  2  0  0  0  0
 20 21  1  0  0  0  0
 21 22  2  0  0  0  0
 22 23  1  0  0  0  0
 24 26  1  0  0  0  0
 24 23  2  0  0  0  0
 25 24  1  0  0  0  0
 26 27  2  0  0  0  0
 28 26  2  0  0  0  0
M  END
>  <minimizedAffinity>
-7.43804646

$$$$

 OpenBabel09122219253D

 28 30  0  0  0  0  0  0  0  0999 V2000
    4.4040   -5.8390    3.6230 C   0  0  0  0  0  0  0  0  0  0  0  0
    5.1720   -4.7550    3.8310 C   0  0  0  0  0  0  0  0  0  0  0  0
    6.2480   -4.4100    3.0390 N   0  0  0  0  0  0  0  0  0  0  0  0
    6.4890   -5.1430    2.0060 C   0  0  0  0  0  0  0  0  0  0  0  0
    5.7500   -6.2300    1.6660 N   0  0  0  0  0  0  0  0  0  0  0  0
    4.7290   -6.6780    2.4500 C   0  0  0  0  0  0  0  0  0  0  0  0
    4.1240   -7.7080    2.1770 O   0  0  0  0  0  0  0  0  0  0  0  0
    5.9520   -6.7580    0.8350 H   0  0  0  0  0  0  0  0  0  0  0  0
    4.8360   -3.7910    4.9010 C   0  0  0  0  0  0  0  0  0  0  0  0
    3.6480   -3.0500    4.8780 C   0  0  0  0  0  3  0  0  0  0  0  0
    3.3700   -2.1320    5.8960 C   0  0  0  0  0  3  0  0  0  0  0  0
    4.2750   -1.9600    6.9420 C   0  0  0  0  0  0  0  0  0  0  0  0
    3.8990   -0.7180    8.3160 Br  0  0  0  0  0  0  0  0  0  0  0  0
    5.4540   -2.7010    6.9860 C   0  0  0  0  0  3  0  0  0  0  0  0
    5.7310   -3.6170    5.9690 C   0  0  0  0  0  3  0  0  0  0  0  0
    2.1530   -6.4940    5.1180 N   0  0  0  0  0  1  0  0  0  0  0  0
    3.1730   -6.1970    4.4400 C   0  0  0  0  0  2  0  0  0  0  0  0
    7.7840   -4.7220    0.9350 S   0  0  0  0  0  0  0  0  0  0  0  0
    8.8210   -3.6030    1.9030 C   0  0  0  0  0  2  0  0  0  0  0  0
    9.2210   -2.3100    1.2330 C   0  0  0  0  0  0  0  0  0  0  0  0
    8.9140   -1.0850    1.8490 C   0  0  0  0  0  3  0  0  0  0  0  0
    9.2910    0.1270    1.2660 C   0  0  0  0  0  3  0  0  0  0  0  0
    9.9900    0.1370    0.0610 C   0  0  0  0  0  3  0  0  0  0  0  0
   10.3150   -1.0780   -0.5550 C   0  0  0  0  0  0  0  0  0  0  0  0
    9.9390   -2.2990    0.0270 C   0  0  0  0  0  3  0  0  0  0  0  0
   11.0610   -1.0720   -1.8200 N   0  0  0  0  0  0  0  0  0  0  0  0
   12.2900   -1.2240   -1.7640 O   0  0  0  0  0  0  0  0  0  0  0  0
   10.4200   -0.9130   -2.8670 O   0  0  0  0  0  0  0  0  0  0  0  0
  1  2  2  0  0  0  0
  1 17  1  0  0  0  0
  2  9  1  0  0  0  0
  3  2  1  0  0  0  0
  4  3  2  0  0  0  0
  5  4  1  0  0  0  0
  5  6  1  0  0  0  0
  6  1  1  0  0  0  0
  7  6  2  0  0  0  0
  8  5  1  0  0  0  0
  9 15  1  0  0  0  0
 10  9  2  0  0  0  0
 10 11  1  0  0  0  0
 11 12  2  0  0  0  0
 12 14  1  0  0  0  0
 12 13  1  0  0  0  0
 15 14  2  0  0  0  0
 17 16  1  0  0  0  0
 18 19  1  0  0  0  0
 18  4  1  0  0  0  0
 20 21  1  0  0  0  0
 20 19  1  0  0  0  0
 22 21  2  0  0  0  0
 23 22  1  0  0  0  0
 24 25  1  0  0  0  0
 24 23  2  0  0  0  0
 25 20  2  0  0  0  0
 26 27  2  0  0  0  0
 26 24  1  0  0  0  0
 28 26  2  0  0  0  0
M  END
>  <minimizedAffinity>
-7.28106642

$$$$

 OpenBabel09122219253D

 28 30  0  0  0  0  0  0  0  0999 V2000
    5.9980   -5.5420    2.4800 C   0  0  0  0  0  0  0  0  0  0  0  0
    6.2290   -4.3610    3.0810 C   0  0  0  0  0  0  0  0  0  0  0  0
    7.3190   -3.5600    2.8090 N   0  0  0  0  0  0  0  0  0  0  0  0
    8.1280   -3.9450    1.8820 C   0  0  0  0  0  0  0  0  0  0  0  0
    7.9670   -5.0900    1.1710 N   0  0  0  0  0  0  0  0  0  0  0  0
    6.9630   -5.9710    1.4460 C   0  0  0  0  0  0  0  0  0  0  0  0
    6.8780   -7.0400    0.8540 O   0  0  0  0  0  0  0  0  0  0  0  0
    8.6040   -5.3410    0.4340 H   0  0  0  0  0  0  0  0  0  0  0  0
    5.2460   -3.7960    4.0290 C   0  0  0  0  0  0  0  0  0  0  0  0
    3.9970   -3.3280    3.6030 C   0  0  0  0  0  3  0  0  0  0  0  0
    3.0970   -2.7810    4.5230 C   0  0  0  0  0  3  0  0  0  0  0  0
    3.4420   -2.7080    5.8720 C   0  0  0  0  0  0  0  0  0  0  0  0
    2.2260   -1.9670    7.1150 Br  0  0  0  0  0  0  0  0  0  0  0  0
    4.6740   -3.1840    6.3130 C   0  0  0  0  0  3  0  0  0  0  0  0
    5.5730   -3.7300    5.3930 C   0  0  0  0  0  3  0  0  0  0  0  0
    3.7480   -7.1200    2.9060 N   0  0  0  0  0  1  0  0  0  0  0  0
    4.7680   -6.4050    2.7130 C   0  0  0  0  0  2  0  0  0  0  0  0
    9.4780   -2.9480    1.4490 S   0  0  0  0  0  0  0  0  0  0  0  0
    9.9090   -3.4780   -0.2240 C   0  0  0  0  0  2  0  0  0  0  0  0
   10.8510   -2.5810   -0.9900 C   0  0  0  0  0  0  0  0  0  0  0  0
   11.7980   -3.1490   -1.8600 C   0  0  0  0  0  3  0  0  0  0  0  0
   12.6670   -2.3450   -2.6010 C   0  0  0  0  0  3  0  0  0  0  0  0
   12.6010   -0.9580   -2.4920 C   0  0  0  0  0  3  0  0  0  0  0  0
   11.6520   -0.3790   -1.6400 C   0  0  0  0  0  0  0  0  0  0  0  0
   10.7750   -1.1820   -0.8940 C   0  0  0  0  0  3  0  0  0  0  0  0
   11.5720    1.0830   -1.5320 N   0  0  0  0  0  0  0  0  0  0  0  0
   12.5710    1.7390   -1.8610 O   0  0  0  0  0  0  0  0  0  0  0  0
   10.5140    1.5740   -1.1160 O   0  0  0  0  0  0  0  0  0  0  0  0
  1 17  1  0  0  0  0
  1  2  2  0  0  0  0
  2  9  1  0  0  0  0
  3  2  1  0  0  0  0
  4  3  2  0  0  0  0
  5  6  1  0  0  0  0
  5  4  1  0  0  0  0
  6  1  1  0  0  0  0
  7  6  2  0  0  0  0
  8  5  1  0  0  0  0
  9 15  1  0  0  0  0
 10  9  2  0  0  0  0
 10 11  1  0  0  0  0
 11 12  2  0  0  0  0
 12 14  1  0  0  0  0
 12 13  1  0  0  0  0
 15 14  2  0  0  0  0
 17 16  1  0  0  0  0
 18  4  1  0  0  0  0
 19 18  1  0  0  0  0
 20 25  1  0  0  0  0
 20 19  1  0  0  0  0
 21 20  2  0  0  0  0
 22 23  2  0  0  0  0
 22 21  1  0  0  0  0
 23 24  1  0  0  0  0
 24 26  1  0  0  0  0
 24 25  2  0  0  0  0
 26 28  2  0  0  0  0
 27 26  2  0  0  0  0
M  END
>  <minimizedAffinity>
-7.27630615

$$$$

 OpenBabel09122219253D

 28 30  0  0  0  0  0  0  0  0999 V2000
    5.9120   -5.8710    2.4440 C   0  0  0  0  0  0  0  0  0  0  0  0
    6.1740   -4.6300    2.8930 C   0  0  0  0  0  0  0  0  0  0  0  0
    7.2310   -3.8610    2.4540 N   0  0  0  0  0  0  0  0  0  0  0  0
    7.9730   -4.3430    1.5160 C   0  0  0  0  0  0  0  0  0  0  0  0
    7.7720   -5.5590    0.9490 N   0  0  0  0  0  0  0  0  0  0  0  0
    6.8010   -6.4070    1.3940 C   0  0  0  0  0  0  0  0  0  0  0  0
    6.6840   -7.5360    0.9300 O   0  0  0  0  0  0  0  0  0  0  0  0
    8.3540   -5.8870    0.1970 H   0  0  0  0  0  0  0  0  0  0  0  0
    5.2580   -3.9670    3.8460 C   0  0  0  0  0  0  0  0  0  0  0  0
    5.5900   -3.8070    5.1970 C   0  0  0  0  0  3  0  0  0  0  0  0
    4.6930   -3.1920    6.0760 C   0  0  0  0  0  3  0  0  0  0  0  0
    3.4660   -2.7300    5.6030 C   0  0  0  0  0  0  0  0  0  0  0  0
    2.2530   -1.9000    6.7920 Br  0  0  0  0  0  0  0  0  0  0  0  0
    3.1280   -2.8680    4.2590 C   0  0  0  0  0  3  0  0  0  0  0  0
    4.0250   -3.4820    3.3820 C   0  0  0  0  0  3  0  0  0  0  0  0
    3.7180   -7.3990    3.2100 N   0  0  0  0  0  1  0  0  0  0  0  0
    4.7130   -6.7060    2.8630 C   0  0  0  0  0  2  0  0  0  0  0  0
    9.2750   -3.3950    0.8750 S   0  0  0  0  0  0  0  0  0  0  0  0
    9.0110   -1.7460    1.5630 C   0  0  0  0  0  2  0  0  0  0  0  0
    9.5900   -0.5920    0.7800 C   0  0  0  0  0  0  0  0  0  0  0  0
   10.1860   -0.8310   -0.4700 C   0  0  0  0  0  3  0  0  0  0  0  0
   10.7090    0.2190   -1.2290 C   0  0  0  0  0  3  0  0  0  0  0  0
   10.6370    1.5280   -0.7570 C   0  0  0  0  0  3  0  0  0  0  0  0
   10.0310    1.7800    0.4800 C   0  0  0  0  0  0  0  0  0  0  0  0
    9.5040    0.7290    1.2470 C   0  0  0  0  0  3  0  0  0  0  0  0
    9.9440    3.1600    0.9760 N   0  0  0  0  0  0  0  0  0  0  0  0
   10.4200    3.4000    2.0950 O   0  0  0  0  0  0  0  0  0  0  0  0
    9.4010    4.0020    0.2480 O   0  0  0  0  0  0  0  0  0  0  0  0
  1 17  1  0  0  0  0
  1  2  2  0  0  0  0
  2  9  1  0  0  0  0
  3  2  1  0  0  0  0
  4  3  2  0  0  0  0
  5  6  1  0  0  0  0
  5  4  1  0  0  0  0
  6  1  1  0  0  0  0
  7  6  2  0  0  0  0
  8  5  1  0  0  0  0
  9 10  1  0  0  0  0
 10 11  2  0  0  0  0
 12 11  1  0  0  0  0
 12 13  1  0  0  0  0
 14 12  2  0  0  0  0
 15  9  2  0  0  0  0
 15 14  1  0  0  0  0
 17 16  1  0  0  0  0
 18  4  1  0  0  0  0
 18 19  1  0  0  0  0
 20 25  1  0  0  0  0
 20 19  1  0  0  0  0
 21 20  2  0  0  0  0
 22 23  2  0  0  0  0
 22 21  1  0  0  0  0
 23 24  1  0  0  0  0
 24 26  1  0  0  0  0
 24 25  2  0  0  0  0
 26 27  2  0  0  0  0
 28 26  2  0  0  0  0
M  END
>  <minimizedAffinity>
-7.17325735

$$$$

 OpenBabel09122219253D

 28 30  0  0  0  0  0  0  0  0999 V2000
    9.3230   -1.1600    2.1270 C   0  0  0  0  0  0  0  0  0  0  0  0
    9.0480   -2.3250    2.7410 C   0  0  0  0  0  0  0  0  0  0  0  0
    8.8960   -3.5260    2.0800 N   0  0  0  0  0  0  0  0  0  0  0  0
    9.0870   -3.5350    0.8050 C   0  0  0  0  0  0  0  0  0  0  0  0
    9.4220   -2.4330    0.0860 N   0  0  0  0  0  0  0  0  0  0  0  0
    9.5030   -1.2000    0.6610 C   0  0  0  0  0  0  0  0  0  0  0  0
    9.7220   -0.2000   -0.0130 O   0  0  0  0  0  0  0  0  0  0  0  0
    9.5930   -2.4880   -0.9030 H   0  0  0  0  0  0  0  0  0  0  0  0
    8.9840   -2.3990    4.2160 C   0  0  0  0  0  0  0  0  0  0  0  0
    7.8090   -2.7660    4.8850 C   0  0  0  0  0  3  0  0  0  0  0  0
    7.7770   -2.8080    6.2820 C   0  0  0  0  0  3  0  0  0  0  0  0
    8.9210   -2.4900    7.0130 C   0  0  0  0  0  0  0  0  0  0  0  0
    8.8760   -2.5450    8.9020 Br  0  0  0  0  0  0  0  0  0  0  0  0
   10.1010   -2.1380    6.3610 C   0  0  0  0  0  3  0  0  0  0  0  0
   10.1320   -2.0970    4.9660 C   0  0  0  0  0  3  0  0  0  0  0  0
    9.7640    1.2530    3.4360 N   0  0  0  0  0  1  0  0  0  0  0  0
    9.5640    0.1590    2.8420 C   0  0  0  0  0  2  0  0  0  0  0  0
    8.9780   -5.0270   -0.0710 S   0  0  0  0  0  0  0  0  0  0  0  0
    7.3150   -5.0120   -0.7770 C   0  0  0  0  0  2  0  0  0  0  0  0
    6.2810   -5.8600   -0.0750 C   0  0  0  0  0  0  0  0  0  0  0  0
    5.5240   -6.7860   -0.8150 C   0  0  0  0  0  3  0  0  0  0  0  0
    4.5770   -7.6020   -0.1910 C   0  0  0  0  0  3  0  0  0  0  0  0
    4.3760   -7.5140    1.1850 C   0  0  0  0  0  3  0  0  0  0  0  0
    5.1350   -6.6080    1.9350 C   0  0  0  0  0  0  0  0  0  0  0  0
    6.0880   -5.7850    1.3130 C   0  0  0  0  0  3  0  0  0  0  0  0
    4.9330   -6.5200    3.3870 N   0  0  0  0  0  0  0  0  0  0  0  0
    4.4730   -7.5160    3.9640 O   0  0  0  0  0  0  0  0  0  0  0  0
    5.2320   -5.4580    3.9490 O   0  0  0  0  0  0  0  0  0  0  0  0
  1  2  2  0  0  0  0
  1 17  1  0  0  0  0
  2  9  1  0  0  0  0
  3  2  1  0  0  0  0
  4  3  2  0  0  0  0
  5  6  1  0  0  0  0
  5  4  1  0  0  0  0
  6  1  1  0  0  0  0
  7  6  2  0  0  0  0
  8  5  1  0  0  0  0
  9 10  2  0  0  0  0
  9 15  1  0  0  0  0
 10 11  1  0  0  0  0
 11 12  2  0  0  0  0
 12 13  1  0  0  0  0
 14 12  1  0  0  0  0
 15 14  2  0  0  0  0
 17 16  1  0  0  0  0
 18  4  1  0  0  0  0
 19 20  1  0  0  0  0
 19 18  1  0  0  0  0
 20 25  1  0  0  0  0
 21 22  1  0  0  0  0
 21 20  2  0  0  0  0
 22 23  2  0  0  0  0
 23 24  1  0  0  0  0
 24 26  1  0  0  0  0
 25 24  2  0  0  0  0
 26 28  2  0  0  0  0
 26 27  2  0  0  0  0
M  END
>  <minimizedAffinity>
-7.15740204

$$$$
