
 OpenBabel09132204463D

 24 25  0  0  0  0  0  0  0  0999 V2000
    4.5870   -1.9920    7.0580 C   0  0  0  0  0  0  0  0  0  0  0  0
    3.4060   -1.7320    6.6080 N   0  0  0  0  0  0  0  0  0  0  0  0
    3.0780   -2.2440    5.3710 C   0  0  0  0  0  0  0  0  0  0  0  0
    3.8580   -3.0890    4.6730 C   0  0  0  0  0  0  0  0  0  0  0  0
    5.1810   -3.4080    5.2440 C   0  0  0  0  0  0  0  0  0  0  0  0
    5.9610   -4.1930    4.7200 O   0  0  0  0  0  0  0  0  0  0  0  0
    5.4930   -2.7630    6.4040 N   0  0  0  0  0  0  0  0  0  0  0  0
    6.4160   -2.9050    6.7800 H   0  0  0  0  0  0  0  0  0  0  0  0
    1.8150   -1.7440    4.7870 C   0  0  0  0  0  0  0  0  0  0  0  0
    1.8230   -0.5410    4.0660 C   0  0  0  0  0  3  0  0  0  0  0  0
    0.6420   -0.0430    3.5110 C   0  0  0  0  0  3  0  0  0  0  0  0
   -0.5520   -0.7470    3.6670 C   0  0  0  0  0  0  0  0  0  0  0  0
   -2.0020   -0.1300    2.9770 Cl  0  0  0  0  0  0  0  0  0  0  0  0
   -0.5790   -1.9460    4.3730 C   0  0  0  0  0  3  0  0  0  0  0  0
    0.6000   -2.4440    4.9310 C   0  0  0  0  0  0  0  0  0  0  0  0
    0.5090   -3.9360    5.8030 Cl  0  0  0  0  0  0  0  0  0  0  0  0
    3.5150   -3.6350    3.2950 C   0  0  0  0  0  2  0  0  0  0  0  0
    3.2300   -4.0870    2.1530 N   0  0  0  0  0  1  0  0  0  0  0  0
    5.1310   -1.3010    8.5480 S   0  0  0  0  0  0  0  0  0  0  0  0
    3.9990    0.0890    8.8330 C   0  0  0  0  0  2  0  0  0  0  0  0
    2.5320   -0.3010    9.0250 C   0  0  0  0  0  2  0  0  0  0  0  0
    2.0600   -1.5520    8.2780 C   0  0  0  0  0  2  0  0  0  0  0  0
    2.3250   -3.9130    9.2310 C   0  0  0  0  0  1  0  0  0  0  0  0
    1.4600   -2.6650    9.1460 C   0  0  0  0  0  2  0  0  0  0  0  0
  1 19  1  0  0  0  0
  2  1  2  0  0  0  0
  3  2  1  0  0  0  0
  4  5  1  0  0  0  0
  4  3  2  0  0  0  0
  5  7  1  0  0  0  0
  6  5  2  0  0  0  0
  7  8  1  0  0  0  0
  7  1  1  0  0  0  0
  9 15  1  0  0  0  0
  9  3  1  0  0  0  0
 10  9  2  0  0  0  0
 11 12  2  0  0  0  0
 11 10  1  0  0  0  0
 12 14  1  0  0  0  0
 13 12  1  0  0  0  0
 14 15  2  0  0  0  0
 15 16  1  0  0  0  0
 17  4  1  0  0  0  0
 18 17  1  0  0  0  0
 19 20  1  0  0  0  0
 20 21  1  0  0  0  0
 22 21  1  0  0  0  0
 22 24  1  0  0  0  0
 24 23  1  0  0  0  0
M  END
>  <minimizedAffinity>
11.5999784

$$$$
