
 OpenBabel09122223113D

 24 25  0  0  0  0  0  0  0  0999 V2000
    2.7130   -3.1300    7.7620 C   0  0  0  0  0  0  0  0  0  0  0  0
    3.4140   -3.3050    6.6940 N   0  0  0  0  0  0  0  0  0  0  0  0
    3.0130   -2.6310    5.5600 C   0  0  0  0  0  0  0  0  0  0  0  0
    2.0240   -1.7190    5.5350 C   0  0  0  0  0  0  0  0  0  0  0  0
    1.2780   -1.5030    6.7900 C   0  0  0  0  0  0  0  0  0  0  0  0
    0.3860   -0.6720    6.9000 O   0  0  0  0  0  0  0  0  0  0  0  0
    1.6420   -2.2990    7.8360 N   0  0  0  0  0  0  0  0  0  0  0  0
    1.1040   -2.2250    8.6840 H   0  0  0  0  0  0  0  0  0  0  0  0
    3.6920   -3.0270    4.3080 C   0  0  0  0  0  0  0  0  0  0  0  0
    5.0490   -2.7140    4.1370 C   0  0  0  0  0  3  0  0  0  0  0  0
    5.7130   -3.0700    2.9610 C   0  0  0  0  0  3  0  0  0  0  0  0
    5.0270   -3.7460    1.9520 C   0  0  0  0  0  0  0  0  0  0  0  0
    5.8510   -4.1850    0.5070 Cl  0  0  0  0  0  0  0  0  0  0  0  0
    3.6830   -4.0720    2.1050 C   0  0  0  0  0  3  0  0  0  0  0  0
    3.0170   -3.7140    3.2790 C   0  0  0  0  0  0  0  0  0  0  0  0
    1.3450   -4.1390    3.4170 Cl  0  0  0  0  0  0  0  0  0  0  0  0
    1.5570   -0.9930    4.2830 C   0  0  0  0  0  2  0  0  0  0  0  0
    1.1710   -0.3910    3.2450 N   0  0  0  0  0  1  0  0  0  0  0  0
    3.0700   -4.0180    9.2030 S   0  0  0  0  0  0  0  0  0  0  0  0
    4.8820   -4.1280    9.2200 C   0  0  0  0  0  2  0  0  0  0  0  0
    5.5620   -3.7970    7.8910 C   0  0  0  0  0  2  0  0  0  0  0  0
    6.1940   -2.4060    7.7810 C   0  0  0  0  0  2  0  0  0  0  0  0
    5.9240    0.1340    7.9470 C   0  0  0  0  0  1  0  0  0  0  0  0
    5.3080   -1.2310    8.2120 C   0  0  0  0  0  2  0  0  0  0  0  0
  1  7  1  0  0  0  0
  1 19  1  0  0  0  0
  2  1  2  0  0  0  0
  3  2  1  0  0  0  0
  4  3  2  0  0  0  0
  4  5  1  0  0  0  0
  5  6  2  0  0  0  0
  5  7  1  0  0  0  0
  7  8  1  0  0  0  0
  9  3  1  0  0  0  0
 10  9  1  0  0  0  0
 11 10  2  0  0  0  0
 12 14  2  0  0  0  0
 12 11  1  0  0  0  0
 13 12  1  0  0  0  0
 14 15  1  0  0  0  0
 15 16  1  0  0  0  0
 15  9  2  0  0  0  0
 17  4  1  0  0  0  0
 18 17  1  0  0  0  0
 19 20  1  0  0  0  0
 21 20  1  0  0  0  0
 22 21  1  0  0  0  0
 22 24  1  0  0  0  0
 23 24  1  0  0  0  0
M  END
>  <minimizedAffinity>
10.9949427

$$$$

 OpenBabel09122223113D

 24 25  0  0  0  0  0  0  0  0999 V2000
    4.5870   -1.9920    7.0580 C   0  0  0  0  0  0  0  0  0  0  0  0
    3.4060   -1.7320    6.6080 N   0  0  0  0  0  0  0  0  0  0  0  0
    3.0780   -2.2440    5.3710 C   0  0  0  0  0  0  0  0  0  0  0  0
    3.8580   -3.0890    4.6730 C   0  0  0  0  0  0  0  0  0  0  0  0
    5.1810   -3.4080    5.2440 C   0  0  0  0  0  0  0  0  0  0  0  0
    5.9610   -4.1930    4.7200 O   0  0  0  0  0  0  0  0  0  0  0  0
    5.4930   -2.7630    6.4040 N   0  0  0  0  0  0  0  0  0  0  0  0
    6.4160   -2.9050    6.7800 H   0  0  0  0  0  0  0  0  0  0  0  0
    1.8150   -1.7440    4.7870 C   0  0  0  0  0  0  0  0  0  0  0  0
    1.8230   -0.5410    4.0660 C   0  0  0  0  0  3  0  0  0  0  0  0
    0.6420   -0.0430    3.5110 C   0  0  0  0  0  3  0  0  0  0  0  0
   -0.5520   -0.7470    3.6670 C   0  0  0  0  0  0  0  0  0  0  0  0
   -2.0020   -0.1300    2.9770 Cl  0  0  0  0  0  0  0  0  0  0  0  0
   -0.5790   -1.9460    4.3730 C   0  0  0  0  0  3  0  0  0  0  0  0
    0.6000   -2.4440    4.9310 C   0  0  0  0  0  0  0  0  0  0  0  0
    0.5090   -3.9360    5.8030 Cl  0  0  0  0  0  0  0  0  0  0  0  0
    3.5150   -3.6350    3.2950 C   0  0  0  0  0  2  0  0  0  0  0  0
    3.2300   -4.0870    2.1530 N   0  0  0  0  0  1  0  0  0  0  0  0
    5.1310   -1.3010    8.5480 S   0  0  0  0  0  0  0  0  0  0  0  0
    3.9990    0.0890    8.8330 C   0  0  0  0  0  2  0  0  0  0  0  0
    2.5320   -0.3010    9.0250 C   0  0  0  0  0  2  0  0  0  0  0  0
    2.0600   -1.5520    8.2780 C   0  0  0  0  0  2  0  0  0  0  0  0
    2.3250   -3.9130    9.2310 C   0  0  0  0  0  1  0  0  0  0  0  0
    1.4600   -2.6650    9.1460 C   0  0  0  0  0  2  0  0  0  0  0  0
  1 19  1  0  0  0  0
  2  1  2  0  0  0  0
  3  2  1  0  0  0  0
  4  5  1  0  0  0  0
  4  3  2  0  0  0  0
  5  7  1  0  0  0  0
  6  5  2  0  0  0  0
  7  8  1  0  0  0  0
  7  1  1  0  0  0  0
  9 15  1  0  0  0  0
  9  3  1  0  0  0  0
 10  9  2  0  0  0  0
 11 12  2  0  0  0  0
 11 10  1  0  0  0  0
 12 14  1  0  0  0  0
 13 12  1  0  0  0  0
 14 15  2  0  0  0  0
 15 16  1  0  0  0  0
 17  4  1  0  0  0  0
 18 17  1  0  0  0  0
 19 20  1  0  0  0  0
 20 21  1  0  0  0  0
 22 21  1  0  0  0  0
 22 24  1  0  0  0  0
 24 23  1  0  0  0  0
M  END
>  <minimizedAffinity>
11.5999784

$$$$

 OpenBabel09122223113D

 24 25  0  0  0  0  0  0  0  0999 V2000
    4.1170   -3.6560    6.8760 C   0  0  0  0  0  0  0  0  0  0  0  0
    3.0190   -3.1990    6.3760 N   0  0  0  0  0  0  0  0  0  0  0  0
    3.0030   -2.9410    5.0220 C   0  0  0  0  0  0  0  0  0  0  0  0
    4.0080   -3.2510    4.1830 C   0  0  0  0  0  0  0  0  0  0  0  0
    5.2300   -3.8240    4.7820 C   0  0  0  0  0  0  0  0  0  0  0  0
    6.1930   -4.1820    4.1170 O   0  0  0  0  0  0  0  0  0  0  0  0
    5.2250   -3.9280    6.1420 N   0  0  0  0  0  0  0  0  0  0  0  0
    6.0710   -4.2480    6.5850 H   0  0  0  0  0  0  0  0  0  0  0  0
    1.8180   -2.2100    4.5250 C   0  0  0  0  0  0  0  0  0  0  0  0
    2.0000   -1.0150    3.8140 C   0  0  0  0  0  3  0  0  0  0  0  0
    0.8960   -0.3020    3.3390 C   0  0  0  0  0  3  0  0  0  0  0  0
   -0.3940   -0.7820    3.5650 C   0  0  0  0  0  0  0  0  0  0  0  0
   -1.7480    0.0990    2.9750 Cl  0  0  0  0  0  0  0  0  0  0  0  0
   -0.5940   -1.9690    4.2620 C   0  0  0  0  0  3  0  0  0  0  0  0
    0.5070   -2.6820    4.7400 C   0  0  0  0  0  0  0  0  0  0  0  0
    0.2010   -4.1500    5.6040 Cl  0  0  0  0  0  0  0  0  0  0  0  0
    4.0100   -2.9440    2.6940 C   0  0  0  0  0  2  0  0  0  0  0  0
    4.0110   -2.6890    1.4590 N   0  0  0  0  0  1  0  0  0  0  0  0
    4.2700   -3.9040    8.5820 S   0  0  0  0  0  0  0  0  0  0  0  0
    4.6640   -2.2580    9.2360 C   0  0  0  0  0  2  0  0  0  0  0  0
    5.6570   -1.4490    8.4000 C   0  0  0  0  0  2  0  0  0  0  0  0
    5.0620   -0.6230    7.2540 C   0  0  0  0  0  2  0  0  0  0  0  0
    2.9780   -0.4960    8.7330 C   0  0  0  0  0  1  0  0  0  0  0  0
    3.7430    0.0950    7.5590 C   0  0  0  0  0  2  0  0  0  0  0  0
  1 19  1  0  0  0  0
  2  1  2  0  0  0  0
  3  2  1  0  0  0  0
  4  5  1  0  0  0  0
  4  3  2  0  0  0  0
  5  7  1  0  0  0  0
  6  5  2  0  0  0  0
  7  8  1  0  0  0  0
  7  1  1  0  0  0  0
  9 15  1  0  0  0  0
  9  3  1  0  0  0  0
 10  9  2  0  0  0  0
 11 12  2  0  0  0  0
 11 10  1  0  0  0  0
 12 14  1  0  0  0  0
 13 12  1  0  0  0  0
 14 15  2  0  0  0  0
 15 16  1  0  0  0  0
 17  4  1  0  0  0  0
 18 17  1  0  0  0  0
 19 20  1  0  0  0  0
 21 20  1  0  0  0  0
 22 24  1  0  0  0  0
 22 21  1  0  0  0  0
 24 23  1  0  0  0  0
M  END
>  <minimizedAffinity>
13.3351517

$$$$
