
 OpenBabel09132204463D

 24 25  0  0  0  0  0  0  0  0999 V2000
    2.7130   -3.1300    7.7620 C   0  0  0  0  0  0  0  0  0  0  0  0
    3.4140   -3.3050    6.6940 N   0  0  0  0  0  0  0  0  0  0  0  0
    3.0130   -2.6310    5.5600 C   0  0  0  0  0  0  0  0  0  0  0  0
    2.0240   -1.7190    5.5350 C   0  0  0  0  0  0  0  0  0  0  0  0
    1.2780   -1.5030    6.7900 C   0  0  0  0  0  0  0  0  0  0  0  0
    0.3860   -0.6720    6.9000 O   0  0  0  0  0  0  0  0  0  0  0  0
    1.6420   -2.2990    7.8360 N   0  0  0  0  0  0  0  0  0  0  0  0
    1.1040   -2.2250    8.6840 H   0  0  0  0  0  0  0  0  0  0  0  0
    3.6920   -3.0270    4.3080 C   0  0  0  0  0  0  0  0  0  0  0  0
    5.0490   -2.7140    4.1370 C   0  0  0  0  0  3  0  0  0  0  0  0
    5.7130   -3.0700    2.9610 C   0  0  0  0  0  3  0  0  0  0  0  0
    5.0270   -3.7460    1.9520 C   0  0  0  0  0  0  0  0  0  0  0  0
    5.8510   -4.1850    0.5070 Cl  0  0  0  0  0  0  0  0  0  0  0  0
    3.6830   -4.0720    2.1050 C   0  0  0  0  0  3  0  0  0  0  0  0
    3.0170   -3.7140    3.2790 C   0  0  0  0  0  0  0  0  0  0  0  0
    1.3450   -4.1390    3.4170 Cl  0  0  0  0  0  0  0  0  0  0  0  0
    1.5570   -0.9930    4.2830 C   0  0  0  0  0  2  0  0  0  0  0  0
    1.1710   -0.3910    3.2450 N   0  0  0  0  0  1  0  0  0  0  0  0
    3.0700   -4.0180    9.2030 S   0  0  0  0  0  0  0  0  0  0  0  0
    4.8820   -4.1280    9.2200 C   0  0  0  0  0  2  0  0  0  0  0  0
    5.5620   -3.7970    7.8910 C   0  0  0  0  0  2  0  0  0  0  0  0
    6.1940   -2.4060    7.7810 C   0  0  0  0  0  2  0  0  0  0  0  0
    5.9240    0.1340    7.9470 C   0  0  0  0  0  1  0  0  0  0  0  0
    5.3080   -1.2310    8.2120 C   0  0  0  0  0  2  0  0  0  0  0  0
  1  7  1  0  0  0  0
  1 19  1  0  0  0  0
  2  1  2  0  0  0  0
  3  2  1  0  0  0  0
  4  3  2  0  0  0  0
  4  5  1  0  0  0  0
  5  6  2  0  0  0  0
  5  7  1  0  0  0  0
  7  8  1  0  0  0  0
  9  3  1  0  0  0  0
 10  9  1  0  0  0  0
 11 10  2  0  0  0  0
 12 14  2  0  0  0  0
 12 11  1  0  0  0  0
 13 12  1  0  0  0  0
 14 15  1  0  0  0  0
 15 16  1  0  0  0  0
 15  9  2  0  0  0  0
 17  4  1  0  0  0  0
 18 17  1  0  0  0  0
 19 20  1  0  0  0  0
 21 20  1  0  0  0  0
 22 21  1  0  0  0  0
 22 24  1  0  0  0  0
 23 24  1  0  0  0  0
M  END
>  <minimizedAffinity>
10.9949427

$$$$
