
 OpenBabel09122222393D

 25 27  0  0  0  0  0  0  0  0999 V2000
   10.8440    4.0300    3.1090 C   0  0  0  0  0  0  0  0  0  0  0  0
   10.5420    2.5150    2.3800 S   0  0  0  0  0  0  0  0  0  0  0  0
   11.1520    3.0310    0.8630 C   0  0  0  0  0  0  0  0  0  0  0  0
   11.5960    4.3390    0.9380 C   0  0  0  0  0  3  0  0  0  0  0  0
   11.3990    4.9340    2.2220 C   0  0  0  0  0  0  0  0  0  0  0  0
   11.1880    2.1170   -0.2880 C   0  0  0  0  0  0  0  0  0  0  0  0
   10.3100    1.0250   -0.3900 C   0  0  0  0  0  3  0  0  0  0  0  0
   10.3470    0.1790   -1.5020 C   0  0  0  0  0  3  0  0  0  0  0  0
   11.2590    0.4110   -2.5280 C   0  0  0  0  0  3  0  0  0  0  0  0
   12.1350    1.4910   -2.4440 C   0  0  0  0  0  3  0  0  0  0  0  0
   12.0980    2.3380   -1.3340 C   0  0  0  0  0  3  0  0  0  0  0  0
   11.3420    5.1330    5.1190 O   0  0  0  0  0  1  0  0  0  0  0  0
   10.5260    4.3510    4.5260 C   0  0  0  0  0  0  0  0  0  0  0  0
    9.4820    3.8380    5.0320 O   0  0  0  0  0  0  0  0  0  0  0  0
   11.7430    6.2600    2.5600 N   0  0  0  0  0  0  0  0  0  0  0  0
   12.3170    6.2980    3.4310 H   0  0  0  0  0  0  0  0  0  0  0  0
   10.6810    7.5580    2.4330 S   0  0  0  0  0  0  0  0  0  0  0  0
    9.4140    7.1990    3.0430 O   0  0  0  0  0  0  0  0  0  0  0  0
   11.3650    8.7650    2.8750 O   0  0  0  0  0  0  0  0  0  0  0  0
   10.4200    7.7170    0.6630 C   0  0  0  0  0  0  0  0  0  0  0  0
    9.3140    7.1390    0.0560 C   0  0  0  0  0  3  0  0  0  0  0  0
    9.1420    7.3620   -1.3070 C   0  0  0  0  0  3  0  0  0  0  0  0
   10.0660    8.1490   -1.9930 C   0  0  0  0  0  3  0  0  0  0  0  0
   11.1420    8.6780   -1.2940 C   0  0  0  0  0  3  0  0  0  0  0  0
   11.3510    8.4700    0.0200 N   0  0  0  0  0  0  0  0  0  0  0  0
  1 13  1  0  0  0  0
  2  1  1  0  0  0  0
  3  4  2  0  0  0  0
  3  2  1  0  0  0  0
  4  5  1  0  0  0  0
  5 15  1  0  0  0  0
  5  1  2  0  0  0  0
  6  3  1  0  0  0  0
  7  6  1  0  0  0  0
  8  7  2  0  0  0  0
  9 10  2  0  0  0  0
  9  8  1  0  0  0  0
 10 11  1  0  0  0  0
 11  6  2  0  0  0  0
 13 14  2  0  0  0  0
 13 12  1  0  0  0  0
 15 16  1  0  0  0  0
 17 15  1  0  0  0  0
 17 19  2  0  0  0  0
 17 18  2  0  0  0  0
 20 17  1  0  0  0  0
 21 20  1  0  0  0  0
 22 21  2  0  0  0  0
 23 22  1  0  0  0  0
 23 24  2  0  0  0  0
 24 25  1  0  0  0  0
 25 20  2  0  0  0  0
M  END
>  <minimizedAffinity>
-5.84890366

$$$$
