
 OpenBabel09122222393D

 25 27  0  0  0  0  0  0  0  0999 V2000
   10.8130    0.6020   -1.1810 C   0  0  0  0  0  0  0  0  0  0  0  0
   11.2650    2.1190   -0.5400 S   0  0  0  0  0  0  0  0  0  0  0  0
   10.4400    1.8330    0.9360 C   0  0  0  0  0  0  0  0  0  0  0  0
    9.8510    0.5820    0.9280 C   0  0  0  0  0  3  0  0  0  0  0  0
   10.0380   -0.1270   -0.2980 C   0  0  0  0  0  0  0  0  0  0  0  0
   10.4490    2.8350    2.0130 C   0  0  0  0  0  0  0  0  0  0  0  0
   10.2310    2.4780    3.3530 C   0  0  0  0  0  3  0  0  0  0  0  0
   10.2630    3.4430    4.3650 C   0  0  0  0  0  3  0  0  0  0  0  0
   10.5150    4.7760    4.0520 C   0  0  0  0  0  3  0  0  0  0  0  0
   10.7360    5.1460    2.7280 C   0  0  0  0  0  3  0  0  0  0  0  0
   10.7050    4.1820    1.7170 C   0  0  0  0  0  3  0  0  0  0  0  0
   12.3500    0.4620   -2.9490 O   0  0  0  0  0  1  0  0  0  0  0  0
   11.1880    0.1270   -2.5400 C   0  0  0  0  0  0  0  0  0  0  0  0
   10.3430   -0.5690   -3.1800 O   0  0  0  0  0  0  0  0  0  0  0  0
    9.5240   -1.4120   -0.5760 N   0  0  0  0  0  0  0  0  0  0  0  0
    8.4840   -1.4350   -0.5000 H   0  0  0  0  0  0  0  0  0  0  0  0
   10.2400   -2.8360   -0.0380 S   0  0  0  0  0  0  0  0  0  0  0  0
    9.6580   -3.9600   -0.7470 O   0  0  0  0  0  0  0  0  0  0  0  0
   11.6860   -2.6630   -0.0480 O   0  0  0  0  0  0  0  0  0  0  0  0
    9.7320   -2.9400    1.6820 C   0  0  0  0  0  0  0  0  0  0  0  0
   10.6400   -2.7020    2.7030 C   0  0  0  0  0  3  0  0  0  0  0  0
   10.1580   -2.7320    4.0090 C   0  0  0  0  0  3  0  0  0  0  0  0
    8.8070   -2.9900    4.2330 C   0  0  0  0  0  3  0  0  0  0  0  0
    7.9820   -3.2210    3.1410 C   0  0  0  0  0  3  0  0  0  0  0  0
    8.4150   -3.2150    1.8660 N   0  0  0  0  0  0  0  0  0  0  0  0
  1  2  1  0  0  0  0
  1  5  2  0  0  0  0
  2  3  1  0  0  0  0
  3  6  1  0  0  0  0
  4  3  2  0  0  0  0
  5  4  1  0  0  0  0
  6  7  1  0  0  0  0
  7  8  2  0  0  0  0
  9  8  1  0  0  0  0
 10  9  2  0  0  0  0
 11  6  2  0  0  0  0
 11 10  1  0  0  0  0
 12 13  1  0  0  0  0
 13  1  1  0  0  0  0
 14 13  2  0  0  0  0
 15 16  1  0  0  0  0
 15  5  1  0  0  0  0
 15 17  1  0  0  0  0
 17 20  1  0  0  0  0
 18 17  2  0  0  0  0
 19 17  2  0  0  0  0
 20 25  2  0  0  0  0
 20 21  1  0  0  0  0
 21 22  2  0  0  0  0
 22 23  1  0  0  0  0
 24 23  2  0  0  0  0
 25 24  1  0  0  0  0
M  END
>  <minimizedAffinity>
-6.00136232

$$$$
