
 OpenBabel09122222393D

 25 27  0  0  0  0  0  0  0  0999 V2000
    9.3110    8.4110    1.0830 C   0  0  0  0  0  0  0  0  0  0  0  0
    9.9070    7.6810    2.5080 S   0  0  0  0  0  0  0  0  0  0  0  0
   10.5260    6.3290    1.6540 C   0  0  0  0  0  0  0  0  0  0  0  0
   10.2900    6.4630    0.2980 C   0  0  0  0  0  3  0  0  0  0  0  0
    9.5660    7.6470   -0.0400 C   0  0  0  0  0  0  0  0  0  0  0  0
   11.2280    5.2470    2.3600 C   0  0  0  0  0  0  0  0  0  0  0  0
   11.1270    5.0860    3.7510 C   0  0  0  0  0  3  0  0  0  0  0  0
   11.7880    4.0390    4.4000 C   0  0  0  0  0  3  0  0  0  0  0  0
   12.5550    3.1360    3.6690 C   0  0  0  0  0  3  0  0  0  0  0  0
   12.6630    3.2790    2.2880 C   0  0  0  0  0  3  0  0  0  0  0  0
   12.0030    4.3250    1.6380 C   0  0  0  0  0  3  0  0  0  0  0  0
    7.5130    9.7310    0.3540 O   0  0  0  0  0  0  0  0  0  0  0  0
    8.5800    9.7070    1.0540 C   0  0  0  0  0  0  0  0  0  0  0  0
    9.0590   10.6740    1.7200 O   0  0  0  0  0  1  0  0  0  0  0  0
    9.1780    8.0130   -1.3470 N   0  0  0  0  0  0  0  0  0  0  0  0
    8.7160    7.2220   -1.8460 H   0  0  0  0  0  0  0  0  0  0  0  0
   10.1280    8.9530   -2.3700 S   0  0  0  0  0  0  0  0  0  0  0  0
   10.3900   10.2310   -1.7360 O   0  0  0  0  0  0  0  0  0  0  0  0
   11.2480    8.1480   -2.8350 O   0  0  0  0  0  0  0  0  0  0  0  0
    9.0610    9.2440   -3.7860 C   0  0  0  0  0  0  0  0  0  0  0  0
    8.8670   10.5280   -4.2730 C   0  0  0  0  0  3  0  0  0  0  0  0
    8.0830   10.6670   -5.4150 C   0  0  0  0  0  3  0  0  0  0  0  0
    7.5400    9.5320   -6.0150 C   0  0  0  0  0  3  0  0  0  0  0  0
    7.7900    8.2920   -5.4440 C   0  0  0  0  0  3  0  0  0  0  0  0
    8.5290    8.1190   -4.3320 N   0  0  0  0  0  0  0  0  0  0  0  0
  1  2  1  0  0  0  0
  3  6  1  0  0  0  0
  3  2  1  0  0  0  0
  4  3  2  0  0  0  0
  5  4  1  0  0  0  0
  5  1  2  0  0  0  0
  6  7  1  0  0  0  0
  7  8  2  0  0  0  0
  9  8  1  0  0  0  0
 10  9  2  0  0  0  0
 11 10  1  0  0  0  0
 11  6  2  0  0  0  0
 12 13  2  0  0  0  0
 13  1  1  0  0  0  0
 13 14  1  0  0  0  0
 15  5  1  0  0  0  0
 16 15  1  0  0  0  0
 17 18  2  0  0  0  0
 17 15  1  0  0  0  0
 19 17  2  0  0  0  0
 20 17  1  0  0  0  0
 21 20  1  0  0  0  0
 22 21  2  0  0  0  0
 23 24  2  0  0  0  0
 23 22  1  0  0  0  0
 24 25  1  0  0  0  0
 25 20  2  0  0  0  0
M  END
>  <minimizedAffinity>
-6.11367321

$$$$
