
 OpenBabel09122222393D

 25 27  0  0  0  0  0  0  0  0999 V2000
   10.5770    5.5950    2.1460 C   0  0  0  0  0  0  0  0  0  0  0  0
   10.6910    3.9270    2.4960 S   0  0  0  0  0  0  0  0  0  0  0  0
   10.2680    3.4800    0.8960 C   0  0  0  0  0  0  0  0  0  0  0  0
   10.0690    4.6040    0.1140 C   0  0  0  0  0  3  0  0  0  0  0  0
   10.2180    5.8300    0.8320 C   0  0  0  0  0  0  0  0  0  0  0  0
   10.1920    2.0650    0.5020 C   0  0  0  0  0  0  0  0  0  0  0  0
    9.5490    1.1090    1.3050 C   0  0  0  0  0  3  0  0  0  0  0  0
    9.4720   -0.2280    0.9030 C   0  0  0  0  0  3  0  0  0  0  0  0
   10.0320   -0.6280   -0.3070 C   0  0  0  0  0  3  0  0  0  0  0  0
   10.6720    0.3080   -1.1160 C   0  0  0  0  0  3  0  0  0  0  0  0
   10.7490    1.6440   -0.7160 C   0  0  0  0  0  3  0  0  0  0  0  0
    9.8500    7.4920    3.3200 O   0  0  0  0  0  0  0  0  0  0  0  0
   10.8130    6.6730    3.1440 C   0  0  0  0  0  0  0  0  0  0  0  0
   11.9320    6.6970    3.7410 O   0  0  0  0  0  1  0  0  0  0  0  0
   10.0490    7.1170    0.2790 N   0  0  0  0  0  0  0  0  0  0  0  0
    9.1940    7.1700   -0.3170 H   0  0  0  0  0  0  0  0  0  0  0  0
   11.3160    8.0420   -0.3300 S   0  0  0  0  0  0  0  0  0  0  0  0
   11.8250    8.9030    0.7220 O   0  0  0  0  0  0  0  0  0  0  0  0
   12.2370    7.1630   -1.0350 O   0  0  0  0  0  0  0  0  0  0  0  0
   10.5260    9.0800   -1.5640 C   0  0  0  0  0  0  0  0  0  0  0  0
   10.1300   10.3720   -1.2530 C   0  0  0  0  0  3  0  0  0  0  0  0
    9.5870   11.1400   -2.2800 C   0  0  0  0  0  3  0  0  0  0  0  0
    9.4710   10.5910   -3.5560 C   0  0  0  0  0  3  0  0  0  0  0  0
    9.8920    9.2850   -3.7610 C   0  0  0  0  0  3  0  0  0  0  0  0
   10.4060    8.5070   -2.7900 N   0  0  0  0  0  0  0  0  0  0  0  0
  1  2  1  0  0  0  0
  1 13  1  0  0  0  0
  3  2  1  0  0  0  0
  4  5  1  0  0  0  0
  4  3  2  0  0  0  0
  5  1  2  0  0  0  0
  6  3  1  0  0  0  0
  6  7  1  0  0  0  0
  8  7  2  0  0  0  0
  9  8  1  0  0  0  0
 10 11  1  0  0  0  0
 10  9  2  0  0  0  0
 11  6  2  0  0  0  0
 13 12  2  0  0  0  0
 13 14  1  0  0  0  0
 15  5  1  0  0  0  0
 16 15  1  0  0  0  0
 17 15  1  0  0  0  0
 17 18  2  0  0  0  0
 19 17  2  0  0  0  0
 20 21  1  0  0  0  0
 20 17  1  0  0  0  0
 22 21  2  0  0  0  0
 23 22  1  0  0  0  0
 24 23  2  0  0  0  0
 24 25  1  0  0  0  0
 25 20  2  0  0  0  0
M  END
>  <minimizedAffinity>
-5.68047428

$$$$
