
 OpenBabel09122222393D

 25 27  0  0  0  0  0  0  0  0999 V2000
    9.5450    8.0840    1.2550 C   0  0  0  0  0  0  0  0  0  0  0  0
    9.9670    6.5670    1.9170 S   0  0  0  0  0  0  0  0  0  0  0  0
   10.1100    5.8400    0.3710 C   0  0  0  0  0  0  0  0  0  0  0  0
    9.8570    6.7650   -0.6260 C   0  0  0  0  0  3  0  0  0  0  0  0
    9.5040    8.0570   -0.1270 C   0  0  0  0  0  0  0  0  0  0  0  0
   10.4920    4.4270    0.2320 C   0  0  0  0  0  0  0  0  0  0  0  0
    9.6770    3.3920    0.7190 C   0  0  0  0  0  3  0  0  0  0  0  0
   10.0500    2.0530    0.5610 C   0  0  0  0  0  3  0  0  0  0  0  0
   11.2380    1.7300   -0.0880 C   0  0  0  0  0  3  0  0  0  0  0  0
   12.0560    2.7440   -0.5790 C   0  0  0  0  0  3  0  0  0  0  0  0
   11.6850    4.0820   -0.4220 C   0  0  0  0  0  3  0  0  0  0  0  0
    9.9850   10.3040    1.8740 O   0  0  0  0  0  0  0  0  0  0  0  0
    9.2340    9.2900    2.0680 C   0  0  0  0  0  0  0  0  0  0  0  0
    8.2590    9.2260    2.8770 O   0  0  0  0  0  1  0  0  0  0  0  0
    9.1780    9.1720   -0.9270 N   0  0  0  0  0  0  0  0  0  0  0  0
    8.1670    9.1770   -1.1860 H   0  0  0  0  0  0  0  0  0  0  0  0
   10.1620    9.7490   -2.1640 S   0  0  0  0  0  0  0  0  0  0  0  0
   10.4900   11.1380   -1.9040 O   0  0  0  0  0  0  0  0  0  0  0  0
   11.2390    8.7950   -2.3850 O   0  0  0  0  0  0  0  0  0  0  0  0
    9.0990    9.6900   -3.6110 C   0  0  0  0  0  0  0  0  0  0  0  0
    8.6770   10.8600   -4.2260 C   0  0  0  0  0  3  0  0  0  0  0  0
    7.9120   10.7350   -5.3820 C   0  0  0  0  0  3  0  0  0  0  0  0
    7.6120    9.4640   -5.8700 C   0  0  0  0  0  3  0  0  0  0  0  0
    8.0780    8.3560   -5.1760 C   0  0  0  0  0  3  0  0  0  0  0  0
    8.8060    8.4370   -4.0460 N   0  0  0  0  0  0  0  0  0  0  0  0
  1  2  1  0  0  0  0
  1 13  1  0  0  0  0
  3  2  1  0  0  0  0
  4  5  1  0  0  0  0
  4  3  2  0  0  0  0
  5  1  2  0  0  0  0
  6  3  1  0  0  0  0
  6  7  1  0  0  0  0
  8  7  2  0  0  0  0
  9  8  1  0  0  0  0
 10 11  1  0  0  0  0
 10  9  2  0  0  0  0
 11  6  2  0  0  0  0
 12 13  2  0  0  0  0
 13 14  1  0  0  0  0
 15  5  1  0  0  0  0
 16 15  1  0  0  0  0
 17 18  2  0  0  0  0
 17 15  1  0  0  0  0
 19 17  2  0  0  0  0
 20 17  1  0  0  0  0
 21 20  2  0  0  0  0
 22 21  1  0  0  0  0
 23 22  2  0  0  0  0
 23 24  1  0  0  0  0
 24 25  2  0  0  0  0
 25 20  1  0  0  0  0
M  END
>  <minimizedAffinity>
-5.99397135

$$$$
