
 OpenBabel09122222393D

 25 27  0  0  0  0  0  0  0  0999 V2000
   10.9160    4.7350    1.8090 C   0  0  0  0  0  0  0  0  0  0  0  0
   11.6510    3.2200    1.5260 S   0  0  0  0  0  0  0  0  0  0  0  0
   10.8550    3.0230    0.0200 C   0  0  0  0  0  0  0  0  0  0  0  0
   10.0610    4.1210   -0.2550 C   0  0  0  0  0  3  0  0  0  0  0  0
   10.0670    5.1030    0.7820 C   0  0  0  0  0  0  0  0  0  0  0  0
   11.0850    1.8280   -0.8050 C   0  0  0  0  0  0  0  0  0  0  0  0
   10.3010    0.6710   -0.6630 C   0  0  0  0  0  3  0  0  0  0  0  0
   10.5240   -0.4480   -1.4710 C   0  0  0  0  0  3  0  0  0  0  0  0
   11.5300   -0.4260   -2.4340 C   0  0  0  0  0  3  0  0  0  0  0  0
   12.3140    0.7140   -2.5900 C   0  0  0  0  0  3  0  0  0  0  0  0
   12.0920    1.8330   -1.7830 C   0  0  0  0  0  3  0  0  0  0  0  0
   10.1040    6.0920    3.5430 O   0  0  0  0  0  1  0  0  0  0  0  0
   11.1420    5.5560    3.0300 C   0  0  0  0  0  0  0  0  0  0  0  0
   12.3280    5.6560    3.4670 O   0  0  0  0  0  0  0  0  0  0  0  0
    9.3290    6.3060    0.7620 N   0  0  0  0  0  0  0  0  0  0  0  0
    8.3100    6.1340    0.9110 H   0  0  0  0  0  0  0  0  0  0  0  0
    9.6180    7.5570   -0.3240 S   0  0  0  0  0  0  0  0  0  0  0  0
   10.9120    7.3560   -0.9500 O   0  0  0  0  0  0  0  0  0  0  0  0
    8.4420    7.7240   -1.1660 O   0  0  0  0  0  0  0  0  0  0  0  0
    9.7290    9.0100    0.7250 C   0  0  0  0  0  0  0  0  0  0  0  0
    8.8630   10.0800    0.5460 C   0  0  0  0  0  3  0  0  0  0  0  0
    8.9640   11.1410    1.4410 C   0  0  0  0  0  3  0  0  0  0  0  0
    9.9070   11.0850    2.4660 C   0  0  0  0  0  3  0  0  0  0  0  0
   10.7300    9.9710    2.5550 C   0  0  0  0  0  3  0  0  0  0  0  0
   10.6740    8.9330    1.6980 N   0  0  0  0  0  0  0  0  0  0  0  0
  1 13  1  0  0  0  0
  2  1  1  0  0  0  0
  3  2  1  0  0  0  0
  4  3  2  0  0  0  0
  4  5  1  0  0  0  0
  5  1  2  0  0  0  0
  6  7  1  0  0  0  0
  6  3  1  0  0  0  0
  8  7  2  0  0  0  0
  9  8  1  0  0  0  0
 10  9  2  0  0  0  0
 10 11  1  0  0  0  0
 11  6  2  0  0  0  0
 13 14  2  0  0  0  0
 13 12  1  0  0  0  0
 15  5  1  0  0  0  0
 15 16  1  0  0  0  0
 17 20  1  0  0  0  0
 17 15  1  0  0  0  0
 18 17  2  0  0  0  0
 19 17  2  0  0  0  0
 20 25  1  0  0  0  0
 21 20  2  0  0  0  0
 21 22  1  0  0  0  0
 22 23  2  0  0  0  0
 23 24  1  0  0  0  0
 25 24  2  0  0  0  0
M  END
>  <minimizedAffinity>
-5.99118662

$$$$
