
 OpenBabel09132204463D

 33 37  0  0  1  0  0  0  0  0999 V2000
    8.7590    0.6120    2.2880 O   0  0  0  0  0  0  0  0  0  0  0  0
    9.3180   -0.1260    1.4650 C   0  0  0  0  0  0  0  0  0  0  0  0
    9.3740   -1.5940    1.7470 C   0  0  0  0  0  0  0  0  0  0  0  0
   10.0550   -2.3910    0.9030 C   0  0  0  0  0  0  0  0  0  0  0  0
   10.7010   -1.8710   -0.3220 C   0  0  0  0  0  0  0  0  0  0  0  0
   11.3450   -2.7050   -1.2550 C   0  0  0  0  0  3  0  0  0  0  0  0
   11.9780   -2.1750   -2.3820 C   0  0  0  0  0  3  0  0  0  0  0  0
   11.9710   -0.8040   -2.6000 C   0  0  0  0  0  3  0  0  0  0  0  0
   11.3050    0.0340   -1.7070 C   0  0  0  0  0  3  0  0  0  0  0  0
   10.6470   -0.4890   -0.5810 C   0  0  0  0  0  0  0  0  0  0  0  0
    9.9090    0.3450    0.2990 N   0  0  0  0  0  0  0  0  0  0  0  0
    8.6610   -2.0810    2.9890 C   0  0  1  0  0  3  0  0  0  0  0  0
    9.1280   -1.7900    4.1790 N   0  0  0  0  0  0  0  0  0  0  0  0
    8.4940   -2.2210    5.5870 S   0  0  0  0  0  0  0  0  0  0  0  0
    9.3970   -3.1410    6.2510 O   0  0  0  0  0  0  0  0  0  0  0  0
    8.0400   -1.0350    6.2860 O   0  0  0  0  0  0  0  0  0  0  0  0
    7.0420   -3.1520    5.2310 C   0  0  0  0  0  0  0  0  0  0  0  0
    6.2720   -3.6580    6.2850 C   0  0  0  0  0  3  0  0  0  0  0  0
    5.1250   -4.3910    5.9960 C   0  0  0  0  0  3  0  0  0  0  0  0
    4.7620   -4.6120    4.6690 C   0  0  0  0  0  3  0  0  0  0  0  0
    5.5440   -4.0980    3.6280 C   0  0  0  0  0  3  0  0  0  0  0  0
    6.6980   -3.3590    3.9020 C   0  0  0  0  0  0  0  0  0  0  0  0
    7.4790   -2.8470    2.8740 N   0  0  0  0  0  0  0  0  0  0  0  0
    9.9790   -1.2390    4.2320 H   0  0  0  0  0  0  0  0  0  0  0  0
    7.1760   -3.0170    1.9130 H   0  0  0  0  0  0  0  0  0  0  0  0
   10.2130   -3.7410    1.1860 O   0  0  0  0  0  0  0  0  0  0  0  0
   11.0720   -4.0370    0.8280 H   0  0  0  0  0  0  0  0  0  0  0  0
    9.8020    1.7410    0.0250 N   0  0  0  0  0  0  0  0  0  0  0  0
    9.9040    1.8640   -0.9880 H   0  0  0  0  0  0  0  0  0  0  0  0
   10.8440    2.5390    0.6910 C   0  0  0  0  0  2  0  0  0  0  0  0
   10.9210    3.9430    0.1740 C   0  0  0  0  0  3  0  0  0  0  0  0
    9.6610    4.7680    0.0710 C   0  0  0  0  0  2  0  0  0  0  0  0
   10.7070    5.1270    1.0890 C   0  0  0  0  0  2  0  0  0  0  0  0
  2  3  1  0  0  0  0
  2  1  2  0  0  0  0
  4 26  1  0  0  0  0
  4  3  2  0  0  0  0
  5  4  1  0  0  0  0
  6  5  2  0  0  0  0
  7  6  1  0  0  0  0
  8  7  2  0  0  0  0
  8  9  1  0  0  0  0
  9 10  2  0  0  0  0
 10  5  1  0  0  0  0
 10 11  1  0  0  0  0
 11  2  1  0  0  0  0
 12  3  1  1  0  0  0
 12 13  1  0  0  0  0
 13 24  1  0  0  0  0
 13 14  1  0  0  0  0
 14 15  2  0  0  0  0
 14 16  2  0  0  0  0
 17 14  1  0  0  0  0
 17 18  1  0  0  0  0
 19 18  2  0  0  0  0
 20 19  1  0  0  0  0
 21 22  1  0  0  0  0
 21 20  2  0  0  0  0
 22 17  2  0  0  0  0
 23 12  1  0  0  0  0
 23 22  1  0  0  0  0
 25 23  1  0  0  0  0
 27 26  1  0  0  0  0
 28 11  1  0  0  0  0
 28 30  1  0  0  0  0
 29 28  1  0  0  0  0
 31 30  1  0  0  0  0
 31 33  1  0  0  0  0
 32 31  1  0  0  0  0
 32 33  1  0  0  0  0
M  END
>  <minimizedAffinity>
-7.26579237

$$$$
