
 OpenBabel09132204463D

 33 37  0  0  1  0  0  0  0  0999 V2000
   10.9920    3.8060    0.2980 O   0  0  0  0  0  0  0  0  0  0  0  0
   10.5710    2.8120    0.9030 C   0  0  0  0  0  0  0  0  0  0  0  0
   10.4070    2.8970    2.3870 C   0  0  0  0  0  0  0  0  0  0  0  0
   10.0330    1.7940    3.0640 C   0  0  0  0  0  0  0  0  0  0  0  0
    9.7270    0.5180    2.3810 C   0  0  0  0  0  0  0  0  0  0  0  0
    9.2560   -0.6170    3.0650 C   0  0  0  0  0  3  0  0  0  0  0  0
    9.0130   -1.8170    2.3940 C   0  0  0  0  0  3  0  0  0  0  0  0
    9.2280   -1.9010    1.0250 C   0  0  0  0  0  3  0  0  0  0  0  0
    9.6570   -0.7750    0.3230 C   0  0  0  0  0  3  0  0  0  0  0  0
    9.8850    0.4430    0.9850 C   0  0  0  0  0  0  0  0  0  0  0  0
   10.2560    1.6140    0.2730 N   0  0  0  0  0  0  0  0  0  0  0  0
   10.6910    4.2350    3.0330 C   0  0  1  0  0  3  0  0  0  0  0  0
   10.4500    5.3490    2.3850 N   0  0  0  0  0  0  0  0  0  0  0  0
   10.6880    6.8400    2.9230 S   0  0  0  0  0  0  0  0  0  0  0  0
   11.7410    7.4620    2.1440 O   0  0  0  0  0  0  0  0  0  0  0  0
    9.4080    7.5060    3.0560 O   0  0  0  0  0  0  0  0  0  0  0  0
   11.3250    6.6970    4.5600 C   0  0  0  0  0  0  0  0  0  0  0  0
   11.6240    7.8560    5.2850 C   0  0  0  0  0  3  0  0  0  0  0  0
   12.1260    7.7360    6.5780 C   0  0  0  0  0  3  0  0  0  0  0  0
   12.3240    6.4700    7.1270 C   0  0  0  0  0  3  0  0  0  0  0  0
   12.0200    5.3230    6.3860 C   0  0  0  0  0  3  0  0  0  0  0  0
   11.5140    5.4280    5.0880 C   0  0  0  0  0  0  0  0  0  0  0  0
   11.2110    4.2930    4.3460 N   0  0  0  0  0  0  0  0  0  0  0  0
   10.0770    5.2770    1.4440 H   0  0  0  0  0  0  0  0  0  0  0  0
   11.3560    3.3820    4.7850 H   0  0  0  0  0  0  0  0  0  0  0  0
    9.9680    1.8090    4.4500 O   0  0  0  0  0  0  0  0  0  0  0  0
   10.1910    0.9190    4.7830 H   0  0  0  0  0  0  0  0  0  0  0  0
   10.3740    1.5680   -1.1480 N   0  0  0  0  0  0  0  0  0  0  0  0
    9.8880    0.7240   -1.4700 H   0  0  0  0  0  0  0  0  0  0  0  0
   11.7690    1.4970   -1.6080 C   0  0  0  0  0  2  0  0  0  0  0  0
   11.9640    0.5280   -2.7340 C   0  0  0  0  0  3  0  0  0  0  0  0
   12.0090   -0.9520   -2.4420 C   0  0  0  0  0  2  0  0  0  0  0  0
   10.8420   -0.3740   -3.1930 C   0  0  0  0  0  2  0  0  0  0  0  0
  1  2  2  0  0  0  0
  2  3  1  0  0  0  0
  3  4  2  0  0  0  0
  4 26  1  0  0  0  0
  5  4  1  0  0  0  0
  5  6  1  0  0  0  0
  7  6  2  0  0  0  0
  8  7  1  0  0  0  0
  9 10  1  0  0  0  0
  9  8  2  0  0  0  0
 10  5  2  0  0  0  0
 11  2  1  0  0  0  0
 11 10  1  0  0  0  0
 12  3  1  1  0  0  0
 12 23  1  0  0  0  0
 13 14  1  0  0  0  0
 13 12  1  0  0  0  0
 14 16  2  0  0  0  0
 14 17  1  0  0  0  0
 15 14  2  0  0  0  0
 17 22  2  0  0  0  0
 17 18  1  0  0  0  0
 18 19  2  0  0  0  0
 19 20  1  0  0  0  0
 21 20  2  0  0  0  0
 22 21  1  0  0  0  0
 23 25  1  0  0  0  0
 23 22  1  0  0  0  0
 24 13  1  0  0  0  0
 26 27  1  0  0  0  0
 28 11  1  0  0  0  0
 29 28  1  0  0  0  0
 30 28  1  0  0  0  0
 31 32  1  0  0  0  0
 31 30  1  0  0  0  0
 33 31  1  0  0  0  0
 33 32  1  0  0  0  0
M  END
>  <minimizedAffinity>
-6.628829

$$$$
