
 OpenBabel09132204463D

 33 37  0  0  1  0  0  0  0  0999 V2000
    8.4300    0.1970    2.1760 O   0  0  0  0  0  0  0  0  0  0  0  0
    9.0520   -0.5030    1.3650 C   0  0  0  0  0  0  0  0  0  0  0  0
    9.0010   -1.9890    1.5190 C   0  0  0  0  0  0  0  0  0  0  0  0
    9.7450   -2.7530    0.6960 C   0  0  0  0  0  0  0  0  0  0  0  0
   10.5650   -2.1720   -0.3890 C   0  0  0  0  0  0  0  0  0  0  0  0
   11.2810   -2.9620   -1.3070 C   0  0  0  0  0  3  0  0  0  0  0  0
   12.0760   -2.3800   -2.2960 C   0  0  0  0  0  3  0  0  0  0  0  0
   12.1630   -0.9970   -2.3900 C   0  0  0  0  0  3  0  0  0  0  0  0
   11.4310   -0.1980   -1.5140 C   0  0  0  0  0  3  0  0  0  0  0  0
   10.6110   -0.7730   -0.5270 C   0  0  0  0  0  0  0  0  0  0  0  0
    9.8080    0.0270    0.3260 N   0  0  0  0  0  0  0  0  0  0  0  0
    8.1140   -2.5350    2.6160 C   0  0  1  0  0  3  0  0  0  0  0  0
    7.0130   -3.1800    2.3190 N   0  0  0  0  0  0  0  0  0  0  0  0
    5.9710   -3.8220    3.3550 S   0  0  0  0  0  0  0  0  0  0  0  0
    4.7150   -3.1030    3.2710 O   0  0  0  0  0  0  0  0  0  0  0  0
    5.9810   -5.2640    3.2050 O   0  0  0  0  0  0  0  0  0  0  0  0
    6.5950   -3.5050    4.9720 C   0  0  0  0  0  0  0  0  0  0  0  0
    5.8830   -3.9630    6.0870 C   0  0  0  0  0  3  0  0  0  0  0  0
    6.3830   -3.7090    7.3610 C   0  0  0  0  0  3  0  0  0  0  0  0
    7.5780   -3.0060    7.5070 C   0  0  0  0  0  3  0  0  0  0  0  0
    8.2750   -2.5560    6.3800 C   0  0  0  0  0  3  0  0  0  0  0  0
    7.7870   -2.8040    5.0950 C   0  0  0  0  0  0  0  0  0  0  0  0
    8.4730   -2.3590    3.9720 N   0  0  0  0  0  0  0  0  0  0  0  0
    6.7790   -3.2910    1.3380 H   0  0  0  0  0  0  0  0  0  0  0  0
    9.3520   -1.8590    4.1160 H   0  0  0  0  0  0  0  0  0  0  0  0
    9.8000   -4.1290    0.8740 O   0  0  0  0  0  0  0  0  0  0  0  0
   10.6820   -4.4440    0.5990 H   0  0  0  0  0  0  0  0  0  0  0  0
    9.8050    1.4450    0.1680 N   0  0  0  0  0  0  0  0  0  0  0  0
    9.8460    1.6420   -0.8380 H   0  0  0  0  0  0  0  0  0  0  0  0
   10.9550    2.0990    0.8110 C   0  0  0  0  0  2  0  0  0  0  0  0
   10.5550    3.0220    1.9220 C   0  0  0  0  0  3  0  0  0  0  0  0
   10.5690    2.5220    3.3460 C   0  0  0  0  0  2  0  0  0  0  0  0
   11.5730    3.5510    2.9050 C   0  0  0  0  0  2  0  0  0  0  0  0
  2  3  1  0  0  0  0
  2  1  2  0  0  0  0
  4 26  1  0  0  0  0
  4  3  2  0  0  0  0
  5  4  1  0  0  0  0
  6  5  2  0  0  0  0
  7  6  1  0  0  0  0
  8  7  2  0  0  0  0
  8  9  1  0  0  0  0
  9 10  2  0  0  0  0
 10  5  1  0  0  0  0
 10 11  1  0  0  0  0
 11  2  1  0  0  0  0
 12  3  1  6  0  0  0
 12 23  1  0  0  0  0
 13 12  1  0  0  0  0
 13 14  1  0  0  0  0
 14 17  1  0  0  0  0
 15 14  2  0  0  0  0
 16 14  2  0  0  0  0
 17 22  2  0  0  0  0
 17 18  1  0  0  0  0
 18 19  2  0  0  0  0
 19 20  1  0  0  0  0
 21 20  2  0  0  0  0
 22 21  1  0  0  0  0
 23 25  1  0  0  0  0
 23 22  1  0  0  0  0
 24 13  1  0  0  0  0
 27 26  1  0  0  0  0
 28 11  1  0  0  0  0
 28 30  1  0  0  0  0
 29 28  1  0  0  0  0
 30 31  1  0  0  0  0
 31 33  1  0  0  0  0
 31 32  1  0  0  0  0
 33 32  1  0  0  0  0
M  END
>  <minimizedAffinity>
-6.75025082

$$$$
