
 OpenBabel09132204463D

 33 37  0  0  1  0  0  0  0  0999 V2000
    8.9430    1.6590    2.0200 O   0  0  0  0  0  0  0  0  0  0  0  0
    9.7110    1.3660    1.0930 C   0  0  0  0  0  0  0  0  0  0  0  0
   10.5650    2.4450    0.5080 C   0  0  0  0  0  0  0  0  0  0  0  0
   11.3370    2.1550   -0.5570 C   0  0  0  0  0  0  0  0  0  0  0  0
   11.4090    0.7940   -1.1300 C   0  0  0  0  0  0  0  0  0  0  0  0
   12.2730    0.4590   -2.1890 C   0  0  0  0  0  3  0  0  0  0  0  0
   12.2870   -0.8280   -2.7310 C   0  0  0  0  0  3  0  0  0  0  0  0
   11.4440   -1.8050   -2.2180 C   0  0  0  0  0  3  0  0  0  0  0  0
   10.6090   -1.5020   -1.1440 C   0  0  0  0  0  3  0  0  0  0  0  0
   10.6010   -0.2160   -0.5770 C   0  0  0  0  0  0  0  0  0  0  0  0
    9.8070    0.0860    0.5600 N   0  0  0  0  0  0  0  0  0  0  0  0
   10.4880    3.8090    1.1570 C   0  0  1  0  0  3  0  0  0  0  0  0
   10.9340    3.9900    2.3760 N   0  0  0  0  0  0  0  0  0  0  0  0
   10.9310    5.3640    3.2020 S   0  0  0  0  0  0  0  0  0  0  0  0
   10.0250    5.2380    4.3270 O   0  0  0  0  0  0  0  0  0  0  0  0
   12.3000    5.7830    3.4290 O   0  0  0  0  0  0  0  0  0  0  0  0
   10.2230    6.5900    2.1530 C   0  0  0  0  0  0  0  0  0  0  0  0
   10.0990    7.9050    2.6180 C   0  0  0  0  0  3  0  0  0  0  0  0
    9.5400    8.8680    1.7830 C   0  0  0  0  0  3  0  0  0  0  0  0
    9.1130    8.5120    0.5050 C   0  0  0  0  0  3  0  0  0  0  0  0
    9.2460    7.1920    0.0580 C   0  0  0  0  0  3  0  0  0  0  0  0
    9.8070    6.2140    0.8840 C   0  0  0  0  0  0  0  0  0  0  0  0
    9.9400    4.9020    0.4470 N   0  0  0  0  0  0  0  0  0  0  0  0
   11.3210    3.1870    2.8620 H   0  0  0  0  0  0  0  0  0  0  0  0
    9.6290    4.6790   -0.5000 H   0  0  0  0  0  0  0  0  0  0  0  0
   12.0660    3.1540   -1.1880 O   0  0  0  0  0  0  0  0  0  0  0  0
   12.1300    2.9410   -2.1380 H   0  0  0  0  0  0  0  0  0  0  0  0
    9.0180   -0.9380    1.1640 N   0  0  0  0  0  0  0  0  0  0  0  0
    8.2610   -0.4780    1.6800 H   0  0  0  0  0  0  0  0  0  0  0  0
    9.7790   -1.7680    2.1090 C   0  0  0  0  0  2  0  0  0  0  0  0
    9.3640   -1.5590    3.5340 C   0  0  0  0  0  3  0  0  0  0  0  0
    8.9380   -2.7440    4.3660 C   0  0  0  0  0  2  0  0  0  0  0  0
   10.2270   -2.0350    4.6790 C   0  0  0  0  0  2  0  0  0  0  0  0
  2  1  2  0  0  0  0
  3  2  1  0  0  0  0
  4  3  2  0  0  0  0
  5 10  1  0  0  0  0
  5  4  1  0  0  0  0
  6  5  2  0  0  0  0
  7  8  2  0  0  0  0
  7  6  1  0  0  0  0
  8  9  1  0  0  0  0
  9 10  2  0  0  0  0
 10 11  1  0  0  0  0
 11  2  1  0  0  0  0
 11 28  1  0  0  0  0
 12  3  1  6  0  0  0
 12 13  1  0  0  0  0
 13 24  1  0  0  0  0
 13 14  1  0  0  0  0
 14 16  2  0  0  0  0
 14 15  2  0  0  0  0
 17 18  1  0  0  0  0
 17 14  1  0  0  0  0
 19 18  2  0  0  0  0
 20 19  1  0  0  0  0
 21 20  2  0  0  0  0
 21 22  1  0  0  0  0
 22 17  2  0  0  0  0
 23 22  1  0  0  0  0
 23 12  1  0  0  0  0
 25 23  1  0  0  0  0
 26  4  1  0  0  0  0
 27 26  1  0  0  0  0
 28 29  1  0  0  0  0
 28 30  1  0  0  0  0
 30 31  1  0  0  0  0
 31 32  1  0  0  0  0
 31 33  1  0  0  0  0
 32 33  1  0  0  0  0
M  END
>  <minimizedAffinity>
-7.766119

$$$$
