
 OpenBabel09132204463D

 33 37  0  0  1  0  0  0  0  0999 V2000
    8.8800    4.1050   -0.5090 O   0  0  0  0  0  0  0  0  0  0  0  0
    9.6490    4.4730    0.3900 C   0  0  0  0  0  0  0  0  0  0  0  0
   10.5070    3.4470    1.0590 C   0  0  0  0  0  0  0  0  0  0  0  0
   11.2800    3.8230    2.0960 C   0  0  0  0  0  0  0  0  0  0  0  0
   11.3490    5.2260    2.5570 C   0  0  0  0  0  0  0  0  0  0  0  0
   12.2140    5.6480    3.5840 C   0  0  0  0  0  3  0  0  0  0  0  0
   12.2250    6.9740    4.0210 C   0  0  0  0  0  3  0  0  0  0  0  0
   11.3780    7.9040    3.4330 C   0  0  0  0  0  3  0  0  0  0  0  0
   10.5430    7.5140    2.3880 C   0  0  0  0  0  3  0  0  0  0  0  0
   10.5370    6.1870    1.9260 C   0  0  0  0  0  0  0  0  0  0  0  0
    9.7420    5.7920    0.8190 N   0  0  0  0  0  0  0  0  0  0  0  0
   10.4320    2.0350    0.5220 C   0  0  1  0  0  3  0  0  0  0  0  0
   10.9240    1.7470   -0.6590 N   0  0  0  0  0  0  0  0  0  0  0  0
   10.9300    0.3100   -1.3680 S   0  0  0  0  0  0  0  0  0  0  0  0
   10.0720    0.3540   -2.5360 O   0  0  0  0  0  0  0  0  0  0  0  0
   12.2990   -0.1460   -1.5040 O   0  0  0  0  0  0  0  0  0  0  0  0
   10.1600   -0.8150   -0.2520 C   0  0  0  0  0  0  0  0  0  0  0  0
   10.0320   -2.1620   -0.6120 C   0  0  0  0  0  3  0  0  0  0  0  0
    9.4230   -3.0450    0.2760 C   0  0  0  0  0  3  0  0  0  0  0  0
    8.9520   -2.5780    1.5020 C   0  0  0  0  0  3  0  0  0  0  0  0
    9.0900   -1.2280    1.8440 C   0  0  0  0  0  3  0  0  0  0  0  0
    9.6990   -0.3300    0.9640 C   0  0  0  0  0  0  0  0  0  0  0  0
    9.8380    1.0120    1.2960 N   0  0  0  0  0  0  0  0  0  0  0  0
   11.3440    2.5010   -1.1920 H   0  0  0  0  0  0  0  0  0  0  0  0
    9.4930    1.3170    2.2080 H   0  0  0  0  0  0  0  0  0  0  0  0
   12.0120    2.8800    2.8040 O   0  0  0  0  0  0  0  0  0  0  0  0
   12.0770    3.1690    3.7330 H   0  0  0  0  0  0  0  0  0  0  0  0
    8.9500    6.7620    0.1360 N   0  0  0  0  0  0  0  0  0  0  0  0
    8.0140    6.3610    0.0120 H   0  0  0  0  0  0  0  0  0  0  0  0
    9.4810    7.1080   -1.1910 C   0  0  0  0  0  2  0  0  0  0  0  0
   10.4890    8.2170   -1.1450 C   0  0  0  0  0  3  0  0  0  0  0  0
   11.9590    7.8900   -1.2420 C   0  0  0  0  0  2  0  0  0  0  0  0
   11.2770    8.6100   -2.3720 C   0  0  0  0  0  2  0  0  0  0  0  0
  1  2  2  0  0  0  0
  2 11  1  0  0  0  0
  2  3  1  0  0  0  0
  3  4  2  0  0  0  0
  4  5  1  0  0  0  0
  4 26  1  0  0  0  0
  5  6  1  0  0  0  0
  6  7  2  0  0  0  0
  8  7  1  0  0  0  0
  9  8  2  0  0  0  0
 10  9  1  0  0  0  0
 10  5  2  0  0  0  0
 11 10  1  0  0  0  0
 12  3  1  1  0  0  0
 12 23  1  0  0  0  0
 13 12  1  0  0  0  0
 14 13  1  0  0  0  0
 14 17  1  0  0  0  0
 15 14  2  0  0  0  0
 16 14  2  0  0  0  0
 17 22  1  0  0  0  0
 18 17  2  0  0  0  0
 18 19  1  0  0  0  0
 19 20  2  0  0  0  0
 20 21  1  0  0  0  0
 22 23  1  0  0  0  0
 22 21  2  0  0  0  0
 23 25  1  0  0  0  0
 24 13  1  0  0  0  0
 26 27  1  0  0  0  0
 28 11  1  0  0  0  0
 29 28  1  0  0  0  0
 30 31  1  0  0  0  0
 30 28  1  0  0  0  0
 32 31  1  0  0  0  0
 33 32  1  0  0  0  0
 33 31  1  0  0  0  0
M  END
>  <minimizedAffinity>
-6.85198927

$$$$
