
 OpenBabel09132204463D

 33 37  0  0  1  0  0  0  0  0999 V2000
    9.2810    1.8540    2.7080 O   0  0  0  0  0  0  0  0  0  0  0  0
    9.9120    1.7650    1.6460 C   0  0  0  0  0  0  0  0  0  0  0  0
   10.8470    2.8720    1.2770 C   0  0  0  0  0  0  0  0  0  0  0  0
   11.4690    2.8250    0.0840 C   0  0  0  0  0  0  0  0  0  0  0  0
   11.2990    1.6900   -0.8490 C   0  0  0  0  0  0  0  0  0  0  0  0
   12.0070    1.5890   -2.0610 C   0  0  0  0  0  3  0  0  0  0  0  0
   11.7930    0.5210   -2.9350 C   0  0  0  0  0  3  0  0  0  0  0  0
   10.8760   -0.4690   -2.6090 C   0  0  0  0  0  3  0  0  0  0  0  0
   10.1950   -0.4060   -1.3940 C   0  0  0  0  0  3  0  0  0  0  0  0
   10.4160    0.6530   -0.4970 C   0  0  0  0  0  0  0  0  0  0  0  0
    9.7810    0.6930    0.7710 N   0  0  0  0  0  0  0  0  0  0  0  0
   11.0190    3.9890    2.2830 C   0  0  1  0  0  3  0  0  0  0  0  0
   10.7410    5.2270    1.9540 N   0  0  0  0  0  0  0  0  0  0  0  0
   10.8620    6.5180    2.8970 S   0  0  0  0  0  0  0  0  0  0  0  0
   11.9100    7.3800    2.3870 O   0  0  0  0  0  0  0  0  0  0  0  0
    9.5390    7.0610    3.1290 O   0  0  0  0  0  0  0  0  0  0  0  0
   11.4290    5.9540    4.4660 C   0  0  0  0  0  0  0  0  0  0  0  0
   11.6220    6.8760    5.5010 C   0  0  0  0  0  3  0  0  0  0  0  0
   12.0700    6.4230    6.7390 C   0  0  0  0  0  3  0  0  0  0  0  0
   12.3180    5.0650    6.9290 C   0  0  0  0  0  3  0  0  0  0  0  0
   12.1200    4.1570    5.8820 C   0  0  0  0  0  3  0  0  0  0  0  0
   11.6700    4.5970    4.6340 C   0  0  0  0  0  0  0  0  0  0  0  0
   11.4720    3.7010    3.5910 N   0  0  0  0  0  0  0  0  0  0  0  0
   10.4180    5.4030    1.0080 H   0  0  0  0  0  0  0  0  0  0  0  0
   11.6520    2.7120    3.7690 H   0  0  0  0  0  0  0  0  0  0  0  0
   12.2660    3.8830   -0.3340 O   0  0  0  0  0  0  0  0  0  0  0  0
   12.2110    3.9500   -1.3060 H   0  0  0  0  0  0  0  0  0  0  0  0
    8.9190   -0.3740    1.1640 N   0  0  0  0  0  0  0  0  0  0  0  0
    8.2630    0.0010    1.8570 H   0  0  0  0  0  0  0  0  0  0  0  0
    9.6400   -1.5000    1.7770 C   0  0  0  0  0  2  0  0  0  0  0  0
    9.3780   -1.6290    3.2470 C   0  0  0  0  0  3  0  0  0  0  0  0
    8.7160   -2.8770    3.7770 C   0  0  0  0  0  2  0  0  0  0  0  0
   10.1580   -2.6020    4.0990 C   0  0  0  0  0  2  0  0  0  0  0  0
  2  1  2  0  0  0  0
  3  2  1  0  0  0  0
  4  3  2  0  0  0  0
  5 10  1  0  0  0  0
  5  4  1  0  0  0  0
  6  5  2  0  0  0  0
  7  8  2  0  0  0  0
  7  6  1  0  0  0  0
  8  9  1  0  0  0  0
  9 10  2  0  0  0  0
 10 11  1  0  0  0  0
 11 28  1  0  0  0  0
 11  2  1  0  0  0  0
 12  3  1  1  0  0  0
 12 23  1  0  0  0  0
 13 12  1  0  0  0  0
 13 14  1  0  0  0  0
 14 16  2  0  0  0  0
 14 17  1  0  0  0  0
 15 14  2  0  0  0  0
 17 22  2  0  0  0  0
 17 18  1  0  0  0  0
 18 19  2  0  0  0  0
 19 20  1  0  0  0  0
 21 20  2  0  0  0  0
 22 21  1  0  0  0  0
 23 25  1  0  0  0  0
 23 22  1  0  0  0  0
 24 13  1  0  0  0  0
 26  4  1  0  0  0  0
 27 26  1  0  0  0  0
 28 30  1  0  0  0  0
 28 29  1  0  0  0  0
 30 31  1  0  0  0  0
 31 32  1  0  0  0  0
 31 33  1  0  0  0  0
 32 33  1  0  0  0  0
M  END
>  <minimizedAffinity>
-7.42404079

$$$$
