
 OpenBabel09132204463D

 27 29  0  0  0  0  0  0  0  0999 V2000
    5.6480   -1.0820    8.1030 C   0  0  0  0  0  0  0  0  0  0  0  0
    6.0100   -0.9990    9.3990 C   0  0  0  0  0  2  0  0  0  0  0  0
    5.2100   -0.4720   10.4510 C   0  0  0  0  0  0  0  0  0  0  0  0
    5.1020    0.8180   10.9560 C   0  0  0  0  0  3  0  0  0  0  0  0
    4.1370    0.8080   11.9910 C   0  0  0  0  0  3  0  0  0  0  0  0
    3.6720   -0.4860   12.0750 C   0  0  0  0  0  0  0  0  0  0  0  0
    4.3030   -1.2500   11.1380 O   0  0  0  0  0  0  0  0  0  0  0  0
    2.6880   -1.1710   12.9110 C   0  0  0  0  0  0  0  0  0  0  0  0
    2.8800   -2.5100   13.2890 C   0  0  0  0  0  3  0  0  0  0  0  0
    1.9400   -3.1720   14.0860 C   0  0  0  0  0  3  0  0  0  0  0  0
    0.8020   -2.4970   14.5080 C   0  0  0  0  0  0  0  0  0  0  0  0
   -0.0980   -3.1320   15.2690 F   0  0  0  0  0  0  0  0  0  0  0  0
    0.5860   -1.1740   14.1490 C   0  0  0  0  0  3  0  0  0  0  0  0
    1.5270   -0.5130   13.3530 C   0  0  0  0  0  3  0  0  0  0  0  0
    4.4730   -0.5280    7.6070 N   0  0  0  0  0  4  0  0  0  0  0  0
    3.2290   -1.0800    7.3950 C   0  0  0  0  0  0  0  0  0  0  0  0
    2.4130   -0.4730    6.6950 O   0  0  0  0  0  0  0  0  0  0  0  0
    4.5440    0.4000    7.2170 H   0  0  0  0  0  0  0  0  0  0  0  0
    2.7840   -2.3200    8.0670 C   0  0  0  0  0  0  0  0  0  0  0  0
    1.9260   -2.2090    9.1690 C   0  0  0  0  0  3  0  0  0  0  0  0
    1.5460   -3.3510    9.8760 C   0  0  0  0  0  3  0  0  0  0  0  0
    2.0340   -4.6010    9.4950 C   0  0  0  0  0  3  0  0  0  0  0  0
    2.9100   -4.7090    8.4140 C   0  0  0  0  0  3  0  0  0  0  0  0
    3.2970   -3.5690    7.7070 C   0  0  0  0  0  3  0  0  0  0  0  0
    7.7570   -0.9890    6.9840 O   0  0  0  0  0  1  0  0  0  0  0  0
    6.7620   -1.7350    7.2240 C   0  0  0  0  0  0  0  0  0  0  0  0
    6.5120   -2.9110    6.8390 O   0  0  0  0  0  0  0  0  0  0  0  0
  1  2  1  0  0  0  0
  2  3  1  0  0  0  0
  3  4  2  0  0  0  0
  3  7  1  0  0  0  0
  4  5  1  0  0  0  0
  5  6  2  0  0  0  0
  6  8  1  0  0  0  0
  7  6  1  0  0  0  0
  8  9  2  0  0  0  0
  8 14  1  0  0  0  0
  9 10  1  0  0  0  0
 10 11  2  0  0  0  0
 11 12  1  0  0  0  0
 13 11  1  0  0  0  0
 14 13  2  0  0  0  0
 15  1  2  3  0  0  0
 16 15  1  0  0  0  0
 16 19  1  0  0  0  0
 17 16  2  0  0  0  0
 18 15  1  0  0  0  0
 19 20  1  0  0  0  0
 20 21  2  0  0  0  0
 22 21  1  0  0  0  0
 23 22  2  0  0  0  0
 24 19  2  0  0  0  0
 24 23  1  0  0  0  0
 25 26  1  0  0  0  0
 26  1  1  0  0  0  0
 27 26  2  0  0  0  0
M  END
>  <minimizedAffinity>
-6.71955872

$$$$
