
 OpenBabel09132204463D

 27 29  0  0  0  0  0  0  0  0999 V2000
    5.5260   -3.0250    8.8850 C   0  0  0  0  0  0  0  0  0  0  0  0
    5.7610   -1.7590    9.2850 C   0  0  0  0  0  2  0  0  0  0  0  0
    4.9860   -1.0300   10.2290 C   0  0  0  0  0  0  0  0  0  0  0  0
    4.9650    0.3250   10.5390 C   0  0  0  0  0  3  0  0  0  0  0  0
    3.9860    0.5330   11.5400 C   0  0  0  0  0  3  0  0  0  0  0  0
    3.4270   -0.6990   11.7980 C   0  0  0  0  0  0  0  0  0  0  0  0
    4.0150   -1.6340   10.9980 O   0  0  0  0  0  0  0  0  0  0  0  0
    2.3840   -1.1850   12.7000 C   0  0  0  0  0  0  0  0  0  0  0  0
    1.7860   -0.3210   13.6320 C   0  0  0  0  0  3  0  0  0  0  0  0
    0.7900   -0.7810   14.5000 C   0  0  0  0  0  3  0  0  0  0  0  0
    0.3880   -2.1080   14.4390 C   0  0  0  0  0  0  0  0  0  0  0  0
   -0.5650   -2.5480   15.2710 F   0  0  0  0  0  0  0  0  0  0  0  0
    0.9610   -2.9850   13.5280 C   0  0  0  0  0  3  0  0  0  0  0  0
    1.9560   -2.5230   12.6610 C   0  0  0  0  0  3  0  0  0  0  0  0
    4.3950   -3.7400    9.2590 N   0  0  0  0  0  4  0  0  0  0  0  0
    3.1130   -3.7390    8.7560 C   0  0  0  0  0  0  0  0  0  0  0  0
    2.2060   -4.2530    9.4170 O   0  0  0  0  0  0  0  0  0  0  0  0
    4.4610   -4.2680   10.1170 H   0  0  0  0  0  0  0  0  0  0  0  0
    2.7930   -3.2490    7.3970 C   0  0  0  0  0  0  0  0  0  0  0  0
    2.3430   -1.9300    7.2520 C   0  0  0  0  0  3  0  0  0  0  0  0
    1.9600   -1.4560    5.9970 C   0  0  0  0  0  3  0  0  0  0  0  0
    2.0090   -2.3020    4.8890 C   0  0  0  0  0  3  0  0  0  0  0  0
    2.4320   -3.6240    5.0350 C   0  0  0  0  0  3  0  0  0  0  0  0
    2.8110   -4.1030    6.2900 C   0  0  0  0  0  3  0  0  0  0  0  0
    7.5270   -4.2150    8.3470 O   0  0  0  0  0  1  0  0  0  0  0  0
    6.5900   -3.5210    7.8540 C   0  0  0  0  0  0  0  0  0  0  0  0
    6.3960   -3.1370    6.6660 O   0  0  0  0  0  0  0  0  0  0  0  0
  1 15  2  3  0  0  0
  1  2  1  0  0  0  0
  2  3  1  0  0  0  0
  3  4  2  0  0  0  0
  3  7  1  0  0  0  0
  4  5  1  0  0  0  0
  5  6  2  0  0  0  0
  6  8  1  0  0  0  0
  7  6  1  0  0  0  0
  8  9  1  0  0  0  0
  9 10  2  0  0  0  0
 11 10  1  0  0  0  0
 11 12  1  0  0  0  0
 13 11  2  0  0  0  0
 14  8  2  0  0  0  0
 14 13  1  0  0  0  0
 15 18  1  0  0  0  0
 16 15  1  0  0  0  0
 16 17  2  0  0  0  0
 19 16  1  0  0  0  0
 20 19  1  0  0  0  0
 21 20  2  0  0  0  0
 22 23  2  0  0  0  0
 22 21  1  0  0  0  0
 23 24  1  0  0  0  0
 24 19  2  0  0  0  0
 26 25  1  0  0  0  0
 26  1  1  0  0  0  0
 27 26  2  0  0  0  0
M  END
>  <minimizedAffinity>
-6.49844646

$$$$
