
 OpenBabel09122223493D

 27 29  0  0  0  0  0  0  0  0999 V2000
    6.7510   -3.5170    7.1060 C   0  0  0  0  0  0  0  0  0  0  0  0
    7.9390   -2.9160    6.8930 C   0  0  0  0  0  2  0  0  0  0  0  0
    8.4460   -2.5050    5.6290 C   0  0  0  0  0  0  0  0  0  0  0  0
    9.2250   -1.4110    5.2720 C   0  0  0  0  0  3  0  0  0  0  0  0
    9.4760   -1.4840    3.8810 C   0  0  0  0  0  3  0  0  0  0  0  0
    8.8560   -2.6300    3.4340 C   0  0  0  0  0  0  0  0  0  0  0  0
    8.2540   -3.2520    4.4870 O   0  0  0  0  0  0  0  0  0  0  0  0
    8.7250   -3.2870    2.1350 C   0  0  0  0  0  0  0  0  0  0  0  0
    9.4800   -2.8500    1.0340 C   0  0  0  0  0  3  0  0  0  0  0  0
    9.3560   -3.4720   -0.2120 C   0  0  0  0  0  3  0  0  0  0  0  0
    8.4740   -4.5340   -0.3640 C   0  0  0  0  0  0  0  0  0  0  0  0
    8.3550   -5.1280   -1.5580 F   0  0  0  0  0  0  0  0  0  0  0  0
    7.7140   -4.9860    0.7060 C   0  0  0  0  0  3  0  0  0  0  0  0
    7.8410   -4.3640    1.9520 C   0  0  0  0  0  3  0  0  0  0  0  0
    5.9180   -3.9350    6.0750 N   0  0  0  0  0  4  0  0  0  0  0  0
    4.5450   -3.9540    5.9670 C   0  0  0  0  0  0  0  0  0  0  0  0
    4.0210   -4.6190    5.0690 O   0  0  0  0  0  0  0  0  0  0  0  0
    6.3620   -4.4240    5.3100 H   0  0  0  0  0  0  0  0  0  0  0  0
    3.6700   -3.1140    6.8150 C   0  0  0  0  0  0  0  0  0  0  0  0
    3.6530   -1.7320    6.5900 C   0  0  0  0  0  3  0  0  0  0  0  0
    2.9000   -0.8980    7.4180 C   0  0  0  0  0  3  0  0  0  0  0  0
    2.1770   -1.4410    8.4800 C   0  0  0  0  0  3  0  0  0  0  0  0
    2.2130   -2.8150    8.7210 C   0  0  0  0  0  3  0  0  0  0  0  0
    2.9700   -3.6520    7.8990 C   0  0  0  0  0  3  0  0  0  0  0  0
    6.1450   -2.8050    9.3050 O   0  0  0  0  0  1  0  0  0  0  0  0
    6.5040   -3.8080    8.6210 C   0  0  0  0  0  0  0  0  0  0  0  0
    6.7260   -5.0000    8.9750 O   0  0  0  0  0  0  0  0  0  0  0  0
  1 26  1  0  0  0  0
  2  1  1  0  0  0  0
  3  2  1  0  0  0  0
  4  3  2  0  0  0  0
  5  4  1  0  0  0  0
  6  5  2  0  0  0  0
  6  7  1  0  0  0  0
  7  3  1  0  0  0  0
  8  6  1  0  0  0  0
  9  8  2  0  0  0  0
 10  9  1  0  0  0  0
 11 10  2  0  0  0  0
 11 13  1  0  0  0  0
 12 11  1  0  0  0  0
 13 14  2  0  0  0  0
 14  8  1  0  0  0  0
 15  1  2  0  0  0  0
 16 15  1  0  0  0  0
 16 19  1  0  0  0  0
 17 16  2  0  0  0  0
 18 15  1  0  0  0  0
 19 24  1  0  0  0  0
 20 19  2  0  0  0  0
 20 21  1  0  0  0  0
 21 22  2  0  0  0  0
 22 23  1  0  0  0  0
 24 23  2  0  0  0  0
 26 27  2  0  0  0  0
 26 25  1  0  0  0  0
M  END
>  <minimizedAffinity>
-6.91551781

$$$$

 OpenBabel09122223493D

 27 29  0  0  0  0  0  0  0  0999 V2000
    1.8020   -1.1140   13.1990 C   0  0  0  0  0  0  0  0  0  0  0  0
    1.6910   -2.4130   12.8540 C   0  0  0  0  0  2  0  0  0  0  0  0
    2.3030   -3.0270   11.7260 C   0  0  0  0  0  0  0  0  0  0  0  0
    3.1540   -4.1220   11.6340 C   0  0  0  0  0  3  0  0  0  0  0  0
    3.4520   -4.3350   10.2670 C   0  0  0  0  0  3  0  0  0  0  0  0
    2.7590   -3.3740    9.5640 C   0  0  0  0  0  0  0  0  0  0  0  0
    2.0550   -2.6010   10.4390 O   0  0  0  0  0  0  0  0  0  0  0  0
    2.6230   -3.0360    8.1490 C   0  0  0  0  0  0  0  0  0  0  0  0
    2.9190   -3.9840    7.1550 C   0  0  0  0  0  3  0  0  0  0  0  0
    2.7950   -3.6640    5.8000 C   0  0  0  0  0  3  0  0  0  0  0  0
    2.3750   -2.3930    5.4310 C   0  0  0  0  0  0  0  0  0  0  0  0
    2.2580   -2.0880    4.1320 F   0  0  0  0  0  0  0  0  0  0  0  0
    2.0770   -1.4360    6.3900 C   0  0  0  0  0  3  0  0  0  0  0  0
    2.2000   -1.7570    7.7450 C   0  0  0  0  0  3  0  0  0  0  0  0
    2.4360   -0.1700   12.3990 N   0  0  0  0  0  4  0  0  0  0  0  0
    3.7700    0.1250   12.2250 C   0  0  0  0  0  0  0  0  0  0  0  0
    4.0860    1.1810   11.6710 O   0  0  0  0  0  0  0  0  0  0  0  0
    1.8390    0.5100   11.9490 H   0  0  0  0  0  0  0  0  0  0  0  0
    4.8460   -0.8300   12.5710 C   0  0  0  0  0  0  0  0  0  0  0  0
    5.5710   -1.4220   11.5300 C   0  0  0  0  0  3  0  0  0  0  0  0
    6.5420   -2.3840   11.8130 C   0  0  0  0  0  3  0  0  0  0  0  0
    6.7770   -2.7680   13.1340 C   0  0  0  0  0  3  0  0  0  0  0  0
    6.0360   -2.1980   14.1700 C   0  0  0  0  0  3  0  0  0  0  0  0
    5.0610   -1.2390   13.8910 C   0  0  0  0  0  3  0  0  0  0  0  0
    1.5820    0.0540   15.2710 O   0  0  0  0  0  1  0  0  0  0  0  0
    1.0190   -0.7860   14.5090 C   0  0  0  0  0  0  0  0  0  0  0  0
   -0.0600   -1.4250   14.6560 O   0  0  0  0  0  0  0  0  0  0  0  0
  1 26  1  0  0  0  0
  2  1  1  0  0  0  0
  3  2  1  0  0  0  0
  4  3  2  0  0  0  0
  5  4  1  0  0  0  0
  6  5  2  0  0  0  0
  6  7  1  0  0  0  0
  7  3  1  0  0  0  0
  8  6  1  0  0  0  0
  9  8  2  0  0  0  0
 10  9  1  0  0  0  0
 11 10  2  0  0  0  0
 11 13  1  0  0  0  0
 12 11  1  0  0  0  0
 13 14  2  0  0  0  0
 14  8  1  0  0  0  0
 15  1  2  0  0  0  0
 16 15  1  0  0  0  0
 16 19  1  0  0  0  0
 17 16  2  0  0  0  0
 18 15  1  0  0  0  0
 19 24  1  0  0  0  0
 20 21  1  0  0  0  0
 20 19  2  0  0  0  0
 21 22  2  0  0  0  0
 22 23  1  0  0  0  0
 24 23  2  0  0  0  0
 26 27  2  0  0  0  0
 26 25  1  0  0  0  0
M  END
>  <minimizedAffinity>
-6.87368345

$$$$

 OpenBabel09122223493D

 27 29  0  0  0  0  0  0  0  0999 V2000
    5.6480   -1.0820    8.1030 C   0  0  0  0  0  0  0  0  0  0  0  0
    6.0100   -0.9990    9.3990 C   0  0  0  0  0  2  0  0  0  0  0  0
    5.2100   -0.4720   10.4510 C   0  0  0  0  0  0  0  0  0  0  0  0
    5.1020    0.8180   10.9560 C   0  0  0  0  0  3  0  0  0  0  0  0
    4.1370    0.8080   11.9910 C   0  0  0  0  0  3  0  0  0  0  0  0
    3.6720   -0.4860   12.0750 C   0  0  0  0  0  0  0  0  0  0  0  0
    4.3030   -1.2500   11.1380 O   0  0  0  0  0  0  0  0  0  0  0  0
    2.6880   -1.1710   12.9110 C   0  0  0  0  0  0  0  0  0  0  0  0
    2.8800   -2.5100   13.2890 C   0  0  0  0  0  3  0  0  0  0  0  0
    1.9400   -3.1720   14.0860 C   0  0  0  0  0  3  0  0  0  0  0  0
    0.8020   -2.4970   14.5080 C   0  0  0  0  0  0  0  0  0  0  0  0
   -0.0980   -3.1320   15.2690 F   0  0  0  0  0  0  0  0  0  0  0  0
    0.5860   -1.1740   14.1490 C   0  0  0  0  0  3  0  0  0  0  0  0
    1.5270   -0.5130   13.3530 C   0  0  0  0  0  3  0  0  0  0  0  0
    4.4730   -0.5280    7.6070 N   0  0  0  0  0  4  0  0  0  0  0  0
    3.2290   -1.0800    7.3950 C   0  0  0  0  0  0  0  0  0  0  0  0
    2.4130   -0.4730    6.6950 O   0  0  0  0  0  0  0  0  0  0  0  0
    4.5440    0.4000    7.2170 H   0  0  0  0  0  0  0  0  0  0  0  0
    2.7840   -2.3200    8.0670 C   0  0  0  0  0  0  0  0  0  0  0  0
    1.9260   -2.2090    9.1690 C   0  0  0  0  0  3  0  0  0  0  0  0
    1.5460   -3.3510    9.8760 C   0  0  0  0  0  3  0  0  0  0  0  0
    2.0340   -4.6010    9.4950 C   0  0  0  0  0  3  0  0  0  0  0  0
    2.9100   -4.7090    8.4140 C   0  0  0  0  0  3  0  0  0  0  0  0
    3.2970   -3.5690    7.7070 C   0  0  0  0  0  3  0  0  0  0  0  0
    7.7570   -0.9890    6.9840 O   0  0  0  0  0  1  0  0  0  0  0  0
    6.7620   -1.7350    7.2240 C   0  0  0  0  0  0  0  0  0  0  0  0
    6.5120   -2.9110    6.8390 O   0  0  0  0  0  0  0  0  0  0  0  0
  1  2  1  0  0  0  0
  2  3  1  0  0  0  0
  3  4  2  0  0  0  0
  3  7  1  0  0  0  0
  4  5  1  0  0  0  0
  5  6  2  0  0  0  0
  6  8  1  0  0  0  0
  7  6  1  0  0  0  0
  8  9  2  0  0  0  0
  8 14  1  0  0  0  0
  9 10  1  0  0  0  0
 10 11  2  0  0  0  0
 11 12  1  0  0  0  0
 13 11  1  0  0  0  0
 14 13  2  0  0  0  0
 15  1  2  3  0  0  0
 16 15  1  0  0  0  0
 16 19  1  0  0  0  0
 17 16  2  0  0  0  0
 18 15  1  0  0  0  0
 19 20  1  0  0  0  0
 20 21  2  0  0  0  0
 22 21  1  0  0  0  0
 23 22  2  0  0  0  0
 24 19  2  0  0  0  0
 24 23  1  0  0  0  0
 25 26  1  0  0  0  0
 26  1  1  0  0  0  0
 27 26  2  0  0  0  0
M  END
>  <minimizedAffinity>
-6.71955872

$$$$

 OpenBabel09122223493D

 27 29  0  0  0  0  0  0  0  0999 V2000
    4.5650   -3.7180    5.3120 C   0  0  0  0  0  0  0  0  0  0  0  0
    3.5730   -2.8050    5.3480 C   0  0  0  0  0  2  0  0  0  0  0  0
    2.9740   -2.2770    6.5260 C   0  0  0  0  0  0  0  0  0  0  0  0
    2.3050   -1.0800    6.7500 C   0  0  0  0  0  3  0  0  0  0  0  0
    1.8800   -1.0580    8.1000 C   0  0  0  0  0  3  0  0  0  0  0  0
    2.2870   -2.2510    8.6540 C   0  0  0  0  0  0  0  0  0  0  0  0
    2.9280   -2.9900    7.7040 O   0  0  0  0  0  0  0  0  0  0  0  0
    2.1740   -2.8600    9.9780 C   0  0  0  0  0  0  0  0  0  0  0  0
    3.1830   -2.6750   10.9380 C   0  0  0  0  0  3  0  0  0  0  0  0
    3.0810   -3.2580   12.2060 C   0  0  0  0  0  3  0  0  0  0  0  0
    1.9700   -4.0300   12.5180 C   0  0  0  0  0  0  0  0  0  0  0  0
    1.8740   -4.5880   13.7320 F   0  0  0  0  0  0  0  0  0  0  0  0
    0.9580   -4.2300   11.5900 C   0  0  0  0  0  3  0  0  0  0  0  0
    1.0610   -3.6450   10.3230 C   0  0  0  0  0  3  0  0  0  0  0  0
    5.0390   -4.3660    6.4470 N   0  0  0  0  0  4  0  0  0  0  0  0
    6.0760   -4.0600    7.3000 C   0  0  0  0  0  0  0  0  0  0  0  0
    6.4850   -4.9220    8.0840 O   0  0  0  0  0  0  0  0  0  0  0  0
    4.6570   -5.2820    6.6340 H   0  0  0  0  0  0  0  0  0  0  0  0
    6.6460   -2.6990    7.4010 C   0  0  0  0  0  0  0  0  0  0  0  0
    7.8320   -2.4200    6.7110 C   0  0  0  0  0  3  0  0  0  0  0  0
    8.4410   -1.1720    6.8420 C   0  0  0  0  0  3  0  0  0  0  0  0
    7.8770   -0.2060    7.6760 C   0  0  0  0  0  3  0  0  0  0  0  0
    6.7090   -0.4910    8.3850 C   0  0  0  0  0  3  0  0  0  0  0  0
    6.1000   -1.7410    8.2610 C   0  0  0  0  0  3  0  0  0  0  0  0
    4.0440   -4.2560    3.0430 O   0  0  0  0  0  0  0  0  0  0  0  0
    4.9990   -4.0550    3.8500 C   0  0  0  0  0  0  0  0  0  0  0  0
    6.2480   -4.1150    3.6690 O   0  0  0  0  0  1  0  0  0  0  0  0
  1  2  1  0  0  0  0
  1 15  2  3  0  0  0
  2  3  1  0  0  0  0
  3  4  2  0  0  0  0
  3  7  1  0  0  0  0
  4  5  1  0  0  0  0
  5  6  2  0  0  0  0
  6  8  1  0  0  0  0
  7  6  1  0  0  0  0
  8 14  2  0  0  0  0
  8  9  1  0  0  0  0
  9 10  2  0  0  0  0
 10 11  1  0  0  0  0
 11 12  1  0  0  0  0
 13 11  2  0  0  0  0
 14 13  1  0  0  0  0
 15 18  1  0  0  0  0
 15 16  1  0  0  0  0
 16 19  1  0  0  0  0
 16 17  2  0  0  0  0
 19 24  1  0  0  0  0
 20 21  1  0  0  0  0
 20 19  2  0  0  0  0
 21 22  2  0  0  0  0
 22 23  1  0  0  0  0
 24 23  2  0  0  0  0
 25 26  2  0  0  0  0
 26  1  1  0  0  0  0
 27 26  1  0  0  0  0
M  END
>  <minimizedAffinity>
-6.67807102

$$$$

 OpenBabel09122223493D

 27 29  0  0  0  0  0  0  0  0999 V2000
    4.8430   -0.6570   10.8130 C   0  0  0  0  0  0  0  0  0  0  0  0
    3.9690   -0.0900    9.9580 C   0  0  0  0  0  2  0  0  0  0  0  0
    3.3680   -0.7310    8.8390 C   0  0  0  0  0  0  0  0  0  0  0  0
    2.0400   -0.8070    8.4380 C   0  0  0  0  0  3  0  0  0  0  0  0
    1.9850   -1.5470    7.2320 C   0  0  0  0  0  3  0  0  0  0  0  0
    3.2850   -1.8840    6.9250 C   0  0  0  0  0  0  0  0  0  0  0  0
    4.1160   -1.3780    7.8800 O   0  0  0  0  0  0  0  0  0  0  0  0
    3.9240   -2.6260    5.8390 C   0  0  0  0  0  0  0  0  0  0  0  0
    5.2310   -3.1190    5.9830 C   0  0  0  0  0  3  0  0  0  0  0  0
    5.8490   -3.8260    4.9470 C   0  0  0  0  0  3  0  0  0  0  0  0
    5.1620   -4.0430    3.7600 C   0  0  0  0  0  0  0  0  0  0  0  0
    5.7550   -4.7190    2.7680 F   0  0  0  0  0  0  0  0  0  0  0  0
    3.8690   -3.5670    3.5890 C   0  0  0  0  0  3  0  0  0  0  0  0
    3.2530   -2.8610    4.6270 C   0  0  0  0  0  3  0  0  0  0  0  0
    5.3740   -1.9270   10.6220 N   0  0  0  0  0  4  0  0  0  0  0  0
    4.8700   -3.1760   10.9120 C   0  0  0  0  0  0  0  0  0  0  0  0
    5.6290   -4.1490   10.9020 O   0  0  0  0  0  0  0  0  0  0  0  0
    6.3410   -1.9700   10.3340 H   0  0  0  0  0  0  0  0  0  0  0  0
    3.4260   -3.4200   11.1200 C   0  0  0  0  0  0  0  0  0  0  0  0
    2.6940   -4.0150   10.0850 C   0  0  0  0  0  3  0  0  0  0  0  0
    1.3160   -4.1920   10.2150 C   0  0  0  0  0  3  0  0  0  0  0  0
    0.6650   -3.7600   11.3710 C   0  0  0  0  0  3  0  0  0  0  0  0
    1.3880   -3.1440   12.3930 C   0  0  0  0  0  3  0  0  0  0  0  0
    2.7660   -2.9600   12.2640 C   0  0  0  0  0  3  0  0  0  0  0  0
    6.4130    0.8740   11.7620 O   0  0  0  0  0  0  0  0  0  0  0  0
    5.2840    0.3290   11.9410 C   0  0  0  0  0  0  0  0  0  0  0  0
    4.4720    0.4320   12.9030 O   0  0  0  0  0  1  0  0  0  0  0  0
  1 26  1  0  0  0  0
  2  1  1  0  0  0  0
  3  2  1  0  0  0  0
  4  3  2  0  0  0  0
  5  4  1  0  0  0  0
  6  5  2  0  0  0  0
  6  7  1  0  0  0  0
  7  3  1  0  0  0  0
  8  9  1  0  0  0  0
  8  6  1  0  0  0  0
 10  9  2  0  0  0  0
 11 10  1  0  0  0  0
 12 11  1  0  0  0  0
 13 11  2  0  0  0  0
 13 14  1  0  0  0  0
 14  8  2  0  0  0  0
 15  1  2  0  0  0  0
 15 16  1  0  0  0  0
 16 19  1  0  0  0  0
 17 16  2  0  0  0  0
 18 15  1  0  0  0  0
 19 24  1  0  0  0  0
 20 21  1  0  0  0  0
 20 19  2  0  0  0  0
 21 22  2  0  0  0  0
 22 23  1  0  0  0  0
 24 23  2  0  0  0  0
 25 26  2  0  0  0  0
 26 27  1  0  0  0  0
M  END
>  <minimizedAffinity>
-6.62369633

$$$$

 OpenBabel09122223493D

 27 29  0  0  0  0  0  0  0  0999 V2000
    5.1660   -4.1880    5.8940 C   0  0  0  0  0  0  0  0  0  0  0  0
    4.5580   -5.0910    6.6890 C   0  0  0  0  0  2  0  0  0  0  0  0
    4.6000   -5.1070    8.1110 C   0  0  0  0  0  0  0  0  0  0  0  0
    5.5180   -5.6690    8.9890 C   0  0  0  0  0  3  0  0  0  0  0  0
    5.1050   -5.3710   10.3100 C   0  0  0  0  0  3  0  0  0  0  0  0
    3.9570   -4.6190   10.1970 C   0  0  0  0  0  0  0  0  0  0  0  0
    3.6640   -4.4450    8.8770 O   0  0  0  0  0  0  0  0  0  0  0  0
    3.0400   -3.9960   11.1490 C   0  0  0  0  0  0  0  0  0  0  0  0
    1.6550   -3.9990   10.9150 C   0  0  0  0  0  3  0  0  0  0  0  0
    0.7730   -3.4010   11.8210 C   0  0  0  0  0  3  0  0  0  0  0  0
    1.2730   -2.7950   12.9660 C   0  0  0  0  0  0  0  0  0  0  0  0
    0.4280   -2.2210   13.8320 F   0  0  0  0  0  0  0  0  0  0  0  0
    2.6370   -2.7750   13.2230 C   0  0  0  0  0  3  0  0  0  0  0  0
    3.5170   -3.3750   12.3160 C   0  0  0  0  0  3  0  0  0  0  0  0
    6.0370   -3.2180    6.3780 N   0  0  0  0  0  4  0  0  0  0  0  0
    5.8020   -1.9610    6.8900 C   0  0  0  0  0  0  0  0  0  0  0  0
    6.7440   -1.1730    7.0050 O   0  0  0  0  0  0  0  0  0  0  0  0
    7.0220   -3.3860    6.2310 H   0  0  0  0  0  0  0  0  0  0  0  0
    4.4830   -1.5530    7.4190 C   0  0  0  0  0  0  0  0  0  0  0  0
    4.3940   -1.1640    8.7620 C   0  0  0  0  0  3  0  0  0  0  0  0
    3.1550   -0.8450    9.3180 C   0  0  0  0  0  3  0  0  0  0  0  0
    2.0000   -0.9310    8.5390 C   0  0  0  0  0  3  0  0  0  0  0  0
    2.0830   -1.3440    7.2090 C   0  0  0  0  0  3  0  0  0  0  0  0
    3.3200   -1.6690    6.6510 C   0  0  0  0  0  3  0  0  0  0  0  0
    5.2510   -5.5990    3.9680 O   0  0  0  0  0  1  0  0  0  0  0  0
    4.8900   -4.4580    4.3810 C   0  0  0  0  0  0  0  0  0  0  0  0
    4.3710   -3.4910    3.7560 O   0  0  0  0  0  0  0  0  0  0  0  0
  1 15  2  0  0  0  0
  1  2  1  0  0  0  0
  2  3  1  0  0  0  0
  3  7  1  0  0  0  0
  3  4  2  0  0  0  0
  4  5  1  0  0  0  0
  6  5  2  0  0  0  0
  6  8  1  0  0  0  0
  7  6  1  0  0  0  0
  8 14  1  0  0  0  0
  9  8  2  0  0  0  0
  9 10  1  0  0  0  0
 10 11  2  0  0  0  0
 11 13  1  0  0  0  0
 11 12  1  0  0  0  0
 14 13  2  0  0  0  0
 15 16  1  0  0  0  0
 16 17  2  0  0  0  0
 16 19  1  0  0  0  0
 18 15  1  0  0  0  0
 19 20  1  0  0  0  0
 20 21  2  0  0  0  0
 22 21  1  0  0  0  0
 23 22  2  0  0  0  0
 24 23  1  0  0  0  0
 24 19  2  0  0  0  0
 25 26  1  0  0  0  0
 26  1  1  0  0  0  0
 27 26  2  0  0  0  0
M  END
>  <minimizedAffinity>
-6.58361149

$$$$

 OpenBabel09122223493D

 27 29  0  0  0  0  0  0  0  0999 V2000
    5.5260   -3.0250    8.8850 C   0  0  0  0  0  0  0  0  0  0  0  0
    5.7610   -1.7590    9.2850 C   0  0  0  0  0  2  0  0  0  0  0  0
    4.9860   -1.0300   10.2290 C   0  0  0  0  0  0  0  0  0  0  0  0
    4.9650    0.3250   10.5390 C   0  0  0  0  0  3  0  0  0  0  0  0
    3.9860    0.5330   11.5400 C   0  0  0  0  0  3  0  0  0  0  0  0
    3.4270   -0.6990   11.7980 C   0  0  0  0  0  0  0  0  0  0  0  0
    4.0150   -1.6340   10.9980 O   0  0  0  0  0  0  0  0  0  0  0  0
    2.3840   -1.1850   12.7000 C   0  0  0  0  0  0  0  0  0  0  0  0
    1.7860   -0.3210   13.6320 C   0  0  0  0  0  3  0  0  0  0  0  0
    0.7900   -0.7810   14.5000 C   0  0  0  0  0  3  0  0  0  0  0  0
    0.3880   -2.1080   14.4390 C   0  0  0  0  0  0  0  0  0  0  0  0
   -0.5650   -2.5480   15.2710 F   0  0  0  0  0  0  0  0  0  0  0  0
    0.9610   -2.9850   13.5280 C   0  0  0  0  0  3  0  0  0  0  0  0
    1.9560   -2.5230   12.6610 C   0  0  0  0  0  3  0  0  0  0  0  0
    4.3950   -3.7400    9.2590 N   0  0  0  0  0  4  0  0  0  0  0  0
    3.1130   -3.7390    8.7560 C   0  0  0  0  0  0  0  0  0  0  0  0
    2.2060   -4.2530    9.4170 O   0  0  0  0  0  0  0  0  0  0  0  0
    4.4610   -4.2680   10.1170 H   0  0  0  0  0  0  0  0  0  0  0  0
    2.7930   -3.2490    7.3970 C   0  0  0  0  0  0  0  0  0  0  0  0
    2.3430   -1.9300    7.2520 C   0  0  0  0  0  3  0  0  0  0  0  0
    1.9600   -1.4560    5.9970 C   0  0  0  0  0  3  0  0  0  0  0  0
    2.0090   -2.3020    4.8890 C   0  0  0  0  0  3  0  0  0  0  0  0
    2.4320   -3.6240    5.0350 C   0  0  0  0  0  3  0  0  0  0  0  0
    2.8110   -4.1030    6.2900 C   0  0  0  0  0  3  0  0  0  0  0  0
    7.5270   -4.2150    8.3470 O   0  0  0  0  0  1  0  0  0  0  0  0
    6.5900   -3.5210    7.8540 C   0  0  0  0  0  0  0  0  0  0  0  0
    6.3960   -3.1370    6.6660 O   0  0  0  0  0  0  0  0  0  0  0  0
  1 15  2  3  0  0  0
  1  2  1  0  0  0  0
  2  3  1  0  0  0  0
  3  4  2  0  0  0  0
  3  7  1  0  0  0  0
  4  5  1  0  0  0  0
  5  6  2  0  0  0  0
  6  8  1  0  0  0  0
  7  6  1  0  0  0  0
  8  9  1  0  0  0  0
  9 10  2  0  0  0  0
 11 10  1  0  0  0  0
 11 12  1  0  0  0  0
 13 11  2  0  0  0  0
 14  8  2  0  0  0  0
 14 13  1  0  0  0  0
 15 18  1  0  0  0  0
 16 15  1  0  0  0  0
 16 17  2  0  0  0  0
 19 16  1  0  0  0  0
 20 19  1  0  0  0  0
 21 20  2  0  0  0  0
 22 23  2  0  0  0  0
 22 21  1  0  0  0  0
 23 24  1  0  0  0  0
 24 19  2  0  0  0  0
 26 25  1  0  0  0  0
 26  1  1  0  0  0  0
 27 26  2  0  0  0  0
M  END
>  <minimizedAffinity>
-6.49844646

$$$$

 OpenBabel09122223493D

 27 29  0  0  0  0  0  0  0  0999 V2000
    6.0430   -3.2360    9.6390 C   0  0  0  0  0  0  0  0  0  0  0  0
    5.3150   -2.9250   10.7310 C   0  0  0  0  0  2  0  0  0  0  0  0
    4.9370   -1.6120   11.1290 C   0  0  0  0  0  0  0  0  0  0  0  0
    3.7500   -1.1310   11.6700 C   0  0  0  0  0  3  0  0  0  0  0  0
    3.9070    0.2550   11.9120 C   0  0  0  0  0  3  0  0  0  0  0  0
    5.1900    0.5730   11.5270 C   0  0  0  0  0  0  0  0  0  0  0  0
    5.8140   -0.5510   11.0750 O   0  0  0  0  0  0  0  0  0  0  0  0
    5.9830    1.8020   11.5120 C   0  0  0  0  0  0  0  0  0  0  0  0
    6.7320    2.1550   10.3780 C   0  0  0  0  0  3  0  0  0  0  0  0
    7.4950    3.3270   10.3590 C   0  0  0  0  0  3  0  0  0  0  0  0
    7.5120    4.1510   11.4770 C   0  0  0  0  0  0  0  0  0  0  0  0
    8.2440    5.2730   11.4580 F   0  0  0  0  0  0  0  0  0  0  0  0
    6.7820    3.8280   12.6110 C   0  0  0  0  0  3  0  0  0  0  0  0
    6.0190    2.6560   12.6280 C   0  0  0  0  0  3  0  0  0  0  0  0
    6.6360   -2.2770    8.8260 N   0  0  0  0  0  4  0  0  0  0  0  0
    6.2190   -1.7070    7.6430 C   0  0  0  0  0  0  0  0  0  0  0  0
    7.0320   -1.0770    6.9600 O   0  0  0  0  0  0  0  0  0  0  0  0
    7.5870   -2.0250    9.0500 H   0  0  0  0  0  0  0  0  0  0  0  0
    4.8040   -1.7170    7.2110 C   0  0  0  0  0  0  0  0  0  0  0  0
    4.4390   -2.5490    6.1460 C   0  0  0  0  0  3  0  0  0  0  0  0
    3.1300   -2.5290    5.6600 C   0  0  0  0  0  3  0  0  0  0  0  0
    2.1910   -1.6670    6.2260 C   0  0  0  0  0  3  0  0  0  0  0  0
    2.5600   -0.8180    7.2710 C   0  0  0  0  0  3  0  0  0  0  0  0
    3.8690   -0.8310    7.7560 C   0  0  0  0  0  3  0  0  0  0  0  0
    6.3720   -5.1890    8.3020 O   0  0  0  0  0  0  0  0  0  0  0  0
    6.2520   -4.7770    9.4940 C   0  0  0  0  0  0  0  0  0  0  0  0
    6.2420   -5.4190   10.5810 O   0  0  0  0  0  1  0  0  0  0  0  0
  1  2  1  0  0  0  0
  2  3  1  0  0  0  0
  3  4  2  0  0  0  0
  4  5  1  0  0  0  0
  6  5  2  0  0  0  0
  7  3  1  0  0  0  0
  7  6  1  0  0  0  0
  8  6  1  0  0  0  0
  8 14  1  0  0  0  0
  9  8  2  0  0  0  0
 10  9  1  0  0  0  0
 10 11  2  0  0  0  0
 11 13  1  0  0  0  0
 12 11  1  0  0  0  0
 13 14  2  0  0  0  0
 15 18  1  0  0  0  0
 15  1  2  3  0  0  0
 16 15  1  0  0  0  0
 17 16  2  0  0  0  0
 19 16  1  0  0  0  0
 19 24  1  0  0  0  0
 20 19  2  0  0  0  0
 21 20  1  0  0  0  0
 21 22  2  0  0  0  0
 22 23  1  0  0  0  0
 23 24  2  0  0  0  0
 25 26  2  0  0  0  0
 26  1  1  0  0  0  0
 26 27  1  0  0  0  0
M  END
>  <minimizedAffinity>
-6.4858737

$$$$

 OpenBabel09122223493D

 27 29  0  0  0  0  0  0  0  0999 V2000
    4.5180    0.1010   11.2550 C   0  0  0  0  0  0  0  0  0  0  0  0
    3.7880    0.1460   10.1220 C   0  0  0  0  0  2  0  0  0  0  0  0
    3.3070   -0.9810    9.4000 C   0  0  0  0  0  0  0  0  0  0  0  0
    2.3610   -1.9420    9.7350 C   0  0  0  0  0  3  0  0  0  0  0  0
    2.2340   -2.8340    8.6430 C   0  0  0  0  0  3  0  0  0  0  0  0
    3.0940   -2.3800    7.6680 C   0  0  0  0  0  0  0  0  0  0  0  0
    3.7240   -1.2570    8.1160 O   0  0  0  0  0  0  0  0  0  0  0  0
    3.4460   -2.8260    6.3210 C   0  0  0  0  0  0  0  0  0  0  0  0
    2.5220   -2.7160    5.2680 C   0  0  0  0  0  3  0  0  0  0  0  0
    2.8520   -3.1440    3.9790 C   0  0  0  0  0  3  0  0  0  0  0  0
    4.1080   -3.6850    3.7360 C   0  0  0  0  0  0  0  0  0  0  0  0
    4.4220   -4.0950    2.5000 F   0  0  0  0  0  0  0  0  0  0  0  0
    5.0400   -3.8050    4.7560 C   0  0  0  0  0  3  0  0  0  0  0  0
    4.7090   -3.3760    6.0450 C   0  0  0  0  0  3  0  0  0  0  0  0
    5.0110   -1.0830   11.7920 N   0  0  0  0  0  4  0  0  0  0  0  0
    4.5610   -1.8650   12.8320 C   0  0  0  0  0  0  0  0  0  0  0  0
    5.3080   -2.7250   13.3060 O   0  0  0  0  0  0  0  0  0  0  0  0
    5.9180   -1.3810   11.4620 H   0  0  0  0  0  0  0  0  0  0  0  0
    3.1710   -1.7970   13.3330 C   0  0  0  0  0  0  0  0  0  0  0  0
    2.3570   -2.9280   13.1960 C   0  0  0  0  0  3  0  0  0  0  0  0
    1.0180   -2.8770   13.5870 C   0  0  0  0  0  3  0  0  0  0  0  0
    0.4860   -1.6940   14.0990 C   0  0  0  0  0  3  0  0  0  0  0  0
    1.2890   -0.5580   14.2130 C   0  0  0  0  0  3  0  0  0  0  0  0
    2.6270   -0.6030   13.8180 C   0  0  0  0  0  3  0  0  0  0  0  0
    5.5780    1.5490   12.8330 O   0  0  0  0  0  1  0  0  0  0  0  0
    4.8550    1.5280   11.7930 C   0  0  0  0  0  0  0  0  0  0  0  0
    4.3370    2.4770   11.1400 O   0  0  0  0  0  0  0  0  0  0  0  0
  1 15  2  3  0  0  0
  1 26  1  0  0  0  0
  2  1  1  0  0  0  0
  3  4  2  0  0  0  0
  3  2  1  0  0  0  0
  5  4  1  0  0  0  0
  6  7  1  0  0  0  0
  6  5  2  0  0  0  0
  7  3  1  0  0  0  0
  8  6  1  0  0  0  0
  9  8  2  0  0  0  0
 10  9  1  0  0  0  0
 11 10  2  0  0  0  0
 11 13  1  0  0  0  0
 12 11  1  0  0  0  0
 13 14  2  0  0  0  0
 14  8  1  0  0  0  0
 15 16  1  0  0  0  0
 16 17  2  0  0  0  0
 16 19  1  0  0  0  0
 18 15  1  0  0  0  0
 19 24  1  0  0  0  0
 20 19  2  0  0  0  0
 20 21  1  0  0  0  0
 21 22  2  0  0  0  0
 22 23  1  0  0  0  0
 24 23  2  0  0  0  0
 26 25  1  0  0  0  0
 27 26  2  0  0  0  0
M  END
>  <minimizedAffinity>
-6.4125824

$$$$

 OpenBabel09122223493D

 27 29  0  0  0  0  0  0  0  0999 V2000
    3.1950   -2.8590   10.9780 C   0  0  0  0  0  0  0  0  0  0  0  0
    2.1560   -2.5030   10.1950 C   0  0  0  0  0  2  0  0  0  0  0  0
    2.2210   -2.2490    8.7960 C   0  0  0  0  0  0  0  0  0  0  0  0
    1.9090   -1.1100    8.0620 C   0  0  0  0  0  3  0  0  0  0  0  0
    2.1790   -1.3780    6.6990 C   0  0  0  0  0  3  0  0  0  0  0  0
    2.6650   -2.6650    6.6450 C   0  0  0  0  0  0  0  0  0  0  0  0
    2.7070   -3.1810    7.9060 O   0  0  0  0  0  0  0  0  0  0  0  0
    3.1270   -3.5440    5.5710 C   0  0  0  0  0  0  0  0  0  0  0  0
    3.2650   -4.9250    5.7880 C   0  0  0  0  0  3  0  0  0  0  0  0
    3.7110   -5.7700    4.7670 C   0  0  0  0  0  3  0  0  0  0  0  0
    4.0210   -5.2370    3.5230 C   0  0  0  0  0  0  0  0  0  0  0  0
    4.4490   -6.0460    2.5450 F   0  0  0  0  0  0  0  0  0  0  0  0
    3.8940   -3.8760    3.2800 C   0  0  0  0  0  3  0  0  0  0  0  0
    3.4480   -3.0330    4.3020 C   0  0  0  0  0  3  0  0  0  0  0  0
    4.5090   -2.8900   10.5250 N   0  0  0  0  0  4  0  0  0  0  0  0
    5.4250   -1.8820   10.3280 C   0  0  0  0  0  0  0  0  0  0  0  0
    6.4400   -2.1120    9.6640 O   0  0  0  0  0  0  0  0  0  0  0  0
    4.8350   -3.7730   10.1580 H   0  0  0  0  0  0  0  0  0  0  0  0
    5.3030   -0.5590   10.9780 C   0  0  0  0  0  0  0  0  0  0  0  0
    4.5160    0.4190   10.3570 C   0  0  0  0  0  3  0  0  0  0  0  0
    4.4380    1.7020   10.8990 C   0  0  0  0  0  3  0  0  0  0  0  0
    5.1580    2.0160   12.0520 C   0  0  0  0  0  3  0  0  0  0  0  0
    5.9640    1.0500   12.6570 C   0  0  0  0  0  3  0  0  0  0  0  0
    6.0490   -0.2330   12.1150 C   0  0  0  0  0  3  0  0  0  0  0  0
    2.8620   -2.0620   13.2060 O   0  0  0  0  0  1  0  0  0  0  0  0
    2.7610   -3.0820   12.4620 C   0  0  0  0  0  0  0  0  0  0  0  0
    2.3950   -4.2590   12.7360 O   0  0  0  0  0  0  0  0  0  0  0  0
  1 26  1  0  0  0  0
  2  1  1  0  0  0  0
  3  2  1  0  0  0  0
  4  3  2  0  0  0  0
  5  4  1  0  0  0  0
  6  5  2  0  0  0  0
  6  7  1  0  0  0  0
  7  3  1  0  0  0  0
  8  9  1  0  0  0  0
  8  6  1  0  0  0  0
 10  9  2  0  0  0  0
 11 10  1  0  0  0  0
 12 11  1  0  0  0  0
 13 11  2  0  0  0  0
 13 14  1  0  0  0  0
 14  8  2  0  0  0  0
 15  1  2  3  0  0  0
 16 15  1  0  0  0  0
 16 19  1  0  0  0  0
 17 16  2  0  0  0  0
 18 15  1  0  0  0  0
 19 24  1  0  0  0  0
 20 21  1  0  0  0  0
 20 19  2  0  0  0  0
 21 22  2  0  0  0  0
 22 23  1  0  0  0  0
 24 23  2  0  0  0  0
 26 27  2  0  0  0  0
 26 25  1  0  0  0  0
M  END
>  <minimizedAffinity>
-6.4092164

$$$$
