
 OpenBabel09132204463D

 27 29  0  0  0  0  0  0  0  0999 V2000
    1.8020   -1.1140   13.1990 C   0  0  0  0  0  0  0  0  0  0  0  0
    1.6910   -2.4130   12.8540 C   0  0  0  0  0  2  0  0  0  0  0  0
    2.3030   -3.0270   11.7260 C   0  0  0  0  0  0  0  0  0  0  0  0
    3.1540   -4.1220   11.6340 C   0  0  0  0  0  3  0  0  0  0  0  0
    3.4520   -4.3350   10.2670 C   0  0  0  0  0  3  0  0  0  0  0  0
    2.7590   -3.3740    9.5640 C   0  0  0  0  0  0  0  0  0  0  0  0
    2.0550   -2.6010   10.4390 O   0  0  0  0  0  0  0  0  0  0  0  0
    2.6230   -3.0360    8.1490 C   0  0  0  0  0  0  0  0  0  0  0  0
    2.9190   -3.9840    7.1550 C   0  0  0  0  0  3  0  0  0  0  0  0
    2.7950   -3.6640    5.8000 C   0  0  0  0  0  3  0  0  0  0  0  0
    2.3750   -2.3930    5.4310 C   0  0  0  0  0  0  0  0  0  0  0  0
    2.2580   -2.0880    4.1320 F   0  0  0  0  0  0  0  0  0  0  0  0
    2.0770   -1.4360    6.3900 C   0  0  0  0  0  3  0  0  0  0  0  0
    2.2000   -1.7570    7.7450 C   0  0  0  0  0  3  0  0  0  0  0  0
    2.4360   -0.1700   12.3990 N   0  0  0  0  0  4  0  0  0  0  0  0
    3.7700    0.1250   12.2250 C   0  0  0  0  0  0  0  0  0  0  0  0
    4.0860    1.1810   11.6710 O   0  0  0  0  0  0  0  0  0  0  0  0
    1.8390    0.5100   11.9490 H   0  0  0  0  0  0  0  0  0  0  0  0
    4.8460   -0.8300   12.5710 C   0  0  0  0  0  0  0  0  0  0  0  0
    5.5710   -1.4220   11.5300 C   0  0  0  0  0  3  0  0  0  0  0  0
    6.5420   -2.3840   11.8130 C   0  0  0  0  0  3  0  0  0  0  0  0
    6.7770   -2.7680   13.1340 C   0  0  0  0  0  3  0  0  0  0  0  0
    6.0360   -2.1980   14.1700 C   0  0  0  0  0  3  0  0  0  0  0  0
    5.0610   -1.2390   13.8910 C   0  0  0  0  0  3  0  0  0  0  0  0
    1.5820    0.0540   15.2710 O   0  0  0  0  0  1  0  0  0  0  0  0
    1.0190   -0.7860   14.5090 C   0  0  0  0  0  0  0  0  0  0  0  0
   -0.0600   -1.4250   14.6560 O   0  0  0  0  0  0  0  0  0  0  0  0
  1 26  1  0  0  0  0
  2  1  1  0  0  0  0
  3  2  1  0  0  0  0
  4  3  2  0  0  0  0
  5  4  1  0  0  0  0
  6  5  2  0  0  0  0
  6  7  1  0  0  0  0
  7  3  1  0  0  0  0
  8  6  1  0  0  0  0
  9  8  2  0  0  0  0
 10  9  1  0  0  0  0
 11 10  2  0  0  0  0
 11 13  1  0  0  0  0
 12 11  1  0  0  0  0
 13 14  2  0  0  0  0
 14  8  1  0  0  0  0
 15  1  2  0  0  0  0
 16 15  1  0  0  0  0
 16 19  1  0  0  0  0
 17 16  2  0  0  0  0
 18 15  1  0  0  0  0
 19 24  1  0  0  0  0
 20 21  1  0  0  0  0
 20 19  2  0  0  0  0
 21 22  2  0  0  0  0
 22 23  1  0  0  0  0
 24 23  2  0  0  0  0
 26 27  2  0  0  0  0
 26 25  1  0  0  0  0
M  END
>  <minimizedAffinity>
-6.87368345

$$$$
