
 OpenBabel09132204463D

 27 29  0  0  0  0  0  0  0  0999 V2000
    6.7510   -3.5170    7.1060 C   0  0  0  0  0  0  0  0  0  0  0  0
    7.9390   -2.9160    6.8930 C   0  0  0  0  0  2  0  0  0  0  0  0
    8.4460   -2.5050    5.6290 C   0  0  0  0  0  0  0  0  0  0  0  0
    9.2250   -1.4110    5.2720 C   0  0  0  0  0  3  0  0  0  0  0  0
    9.4760   -1.4840    3.8810 C   0  0  0  0  0  3  0  0  0  0  0  0
    8.8560   -2.6300    3.4340 C   0  0  0  0  0  0  0  0  0  0  0  0
    8.2540   -3.2520    4.4870 O   0  0  0  0  0  0  0  0  0  0  0  0
    8.7250   -3.2870    2.1350 C   0  0  0  0  0  0  0  0  0  0  0  0
    9.4800   -2.8500    1.0340 C   0  0  0  0  0  3  0  0  0  0  0  0
    9.3560   -3.4720   -0.2120 C   0  0  0  0  0  3  0  0  0  0  0  0
    8.4740   -4.5340   -0.3640 C   0  0  0  0  0  0  0  0  0  0  0  0
    8.3550   -5.1280   -1.5580 F   0  0  0  0  0  0  0  0  0  0  0  0
    7.7140   -4.9860    0.7060 C   0  0  0  0  0  3  0  0  0  0  0  0
    7.8410   -4.3640    1.9520 C   0  0  0  0  0  3  0  0  0  0  0  0
    5.9180   -3.9350    6.0750 N   0  0  0  0  0  4  0  0  0  0  0  0
    4.5450   -3.9540    5.9670 C   0  0  0  0  0  0  0  0  0  0  0  0
    4.0210   -4.6190    5.0690 O   0  0  0  0  0  0  0  0  0  0  0  0
    6.3620   -4.4240    5.3100 H   0  0  0  0  0  0  0  0  0  0  0  0
    3.6700   -3.1140    6.8150 C   0  0  0  0  0  0  0  0  0  0  0  0
    3.6530   -1.7320    6.5900 C   0  0  0  0  0  3  0  0  0  0  0  0
    2.9000   -0.8980    7.4180 C   0  0  0  0  0  3  0  0  0  0  0  0
    2.1770   -1.4410    8.4800 C   0  0  0  0  0  3  0  0  0  0  0  0
    2.2130   -2.8150    8.7210 C   0  0  0  0  0  3  0  0  0  0  0  0
    2.9700   -3.6520    7.8990 C   0  0  0  0  0  3  0  0  0  0  0  0
    6.1450   -2.8050    9.3050 O   0  0  0  0  0  1  0  0  0  0  0  0
    6.5040   -3.8080    8.6210 C   0  0  0  0  0  0  0  0  0  0  0  0
    6.7260   -5.0000    8.9750 O   0  0  0  0  0  0  0  0  0  0  0  0
  1 26  1  0  0  0  0
  2  1  1  0  0  0  0
  3  2  1  0  0  0  0
  4  3  2  0  0  0  0
  5  4  1  0  0  0  0
  6  5  2  0  0  0  0
  6  7  1  0  0  0  0
  7  3  1  0  0  0  0
  8  6  1  0  0  0  0
  9  8  2  0  0  0  0
 10  9  1  0  0  0  0
 11 10  2  0  0  0  0
 11 13  1  0  0  0  0
 12 11  1  0  0  0  0
 13 14  2  0  0  0  0
 14  8  1  0  0  0  0
 15  1  2  0  0  0  0
 16 15  1  0  0  0  0
 16 19  1  0  0  0  0
 17 16  2  0  0  0  0
 18 15  1  0  0  0  0
 19 24  1  0  0  0  0
 20 19  2  0  0  0  0
 20 21  1  0  0  0  0
 21 22  2  0  0  0  0
 22 23  1  0  0  0  0
 24 23  2  0  0  0  0
 26 27  2  0  0  0  0
 26 25  1  0  0  0  0
M  END
>  <minimizedAffinity>
-6.91551781

$$$$
