
 OpenBabel09132204463D

 27 29  0  0  0  0  0  0  0  0999 V2000
    4.5180    0.1010   11.2550 C   0  0  0  0  0  0  0  0  0  0  0  0
    3.7880    0.1460   10.1220 C   0  0  0  0  0  2  0  0  0  0  0  0
    3.3070   -0.9810    9.4000 C   0  0  0  0  0  0  0  0  0  0  0  0
    2.3610   -1.9420    9.7350 C   0  0  0  0  0  3  0  0  0  0  0  0
    2.2340   -2.8340    8.6430 C   0  0  0  0  0  3  0  0  0  0  0  0
    3.0940   -2.3800    7.6680 C   0  0  0  0  0  0  0  0  0  0  0  0
    3.7240   -1.2570    8.1160 O   0  0  0  0  0  0  0  0  0  0  0  0
    3.4460   -2.8260    6.3210 C   0  0  0  0  0  0  0  0  0  0  0  0
    2.5220   -2.7160    5.2680 C   0  0  0  0  0  3  0  0  0  0  0  0
    2.8520   -3.1440    3.9790 C   0  0  0  0  0  3  0  0  0  0  0  0
    4.1080   -3.6850    3.7360 C   0  0  0  0  0  0  0  0  0  0  0  0
    4.4220   -4.0950    2.5000 F   0  0  0  0  0  0  0  0  0  0  0  0
    5.0400   -3.8050    4.7560 C   0  0  0  0  0  3  0  0  0  0  0  0
    4.7090   -3.3760    6.0450 C   0  0  0  0  0  3  0  0  0  0  0  0
    5.0110   -1.0830   11.7920 N   0  0  0  0  0  4  0  0  0  0  0  0
    4.5610   -1.8650   12.8320 C   0  0  0  0  0  0  0  0  0  0  0  0
    5.3080   -2.7250   13.3060 O   0  0  0  0  0  0  0  0  0  0  0  0
    5.9180   -1.3810   11.4620 H   0  0  0  0  0  0  0  0  0  0  0  0
    3.1710   -1.7970   13.3330 C   0  0  0  0  0  0  0  0  0  0  0  0
    2.3570   -2.9280   13.1960 C   0  0  0  0  0  3  0  0  0  0  0  0
    1.0180   -2.8770   13.5870 C   0  0  0  0  0  3  0  0  0  0  0  0
    0.4860   -1.6940   14.0990 C   0  0  0  0  0  3  0  0  0  0  0  0
    1.2890   -0.5580   14.2130 C   0  0  0  0  0  3  0  0  0  0  0  0
    2.6270   -0.6030   13.8180 C   0  0  0  0  0  3  0  0  0  0  0  0
    5.5780    1.5490   12.8330 O   0  0  0  0  0  1  0  0  0  0  0  0
    4.8550    1.5280   11.7930 C   0  0  0  0  0  0  0  0  0  0  0  0
    4.3370    2.4770   11.1400 O   0  0  0  0  0  0  0  0  0  0  0  0
  1 15  2  3  0  0  0
  1 26  1  0  0  0  0
  2  1  1  0  0  0  0
  3  4  2  0  0  0  0
  3  2  1  0  0  0  0
  5  4  1  0  0  0  0
  6  7  1  0  0  0  0
  6  5  2  0  0  0  0
  7  3  1  0  0  0  0
  8  6  1  0  0  0  0
  9  8  2  0  0  0  0
 10  9  1  0  0  0  0
 11 10  2  0  0  0  0
 11 13  1  0  0  0  0
 12 11  1  0  0  0  0
 13 14  2  0  0  0  0
 14  8  1  0  0  0  0
 15 16  1  0  0  0  0
 16 17  2  0  0  0  0
 16 19  1  0  0  0  0
 18 15  1  0  0  0  0
 19 24  1  0  0  0  0
 20 19  2  0  0  0  0
 20 21  1  0  0  0  0
 21 22  2  0  0  0  0
 22 23  1  0  0  0  0
 24 23  2  0  0  0  0
 26 25  1  0  0  0  0
 27 26  2  0  0  0  0
M  END
>  <minimizedAffinity>
-6.4125824

$$$$
