
 OpenBabel09132204463D

 27 29  0  0  0  0  0  0  0  0999 V2000
    4.5650   -3.7180    5.3120 C   0  0  0  0  0  0  0  0  0  0  0  0
    3.5730   -2.8050    5.3480 C   0  0  0  0  0  2  0  0  0  0  0  0
    2.9740   -2.2770    6.5260 C   0  0  0  0  0  0  0  0  0  0  0  0
    2.3050   -1.0800    6.7500 C   0  0  0  0  0  3  0  0  0  0  0  0
    1.8800   -1.0580    8.1000 C   0  0  0  0  0  3  0  0  0  0  0  0
    2.2870   -2.2510    8.6540 C   0  0  0  0  0  0  0  0  0  0  0  0
    2.9280   -2.9900    7.7040 O   0  0  0  0  0  0  0  0  0  0  0  0
    2.1740   -2.8600    9.9780 C   0  0  0  0  0  0  0  0  0  0  0  0
    3.1830   -2.6750   10.9380 C   0  0  0  0  0  3  0  0  0  0  0  0
    3.0810   -3.2580   12.2060 C   0  0  0  0  0  3  0  0  0  0  0  0
    1.9700   -4.0300   12.5180 C   0  0  0  0  0  0  0  0  0  0  0  0
    1.8740   -4.5880   13.7320 F   0  0  0  0  0  0  0  0  0  0  0  0
    0.9580   -4.2300   11.5900 C   0  0  0  0  0  3  0  0  0  0  0  0
    1.0610   -3.6450   10.3230 C   0  0  0  0  0  3  0  0  0  0  0  0
    5.0390   -4.3660    6.4470 N   0  0  0  0  0  4  0  0  0  0  0  0
    6.0760   -4.0600    7.3000 C   0  0  0  0  0  0  0  0  0  0  0  0
    6.4850   -4.9220    8.0840 O   0  0  0  0  0  0  0  0  0  0  0  0
    4.6570   -5.2820    6.6340 H   0  0  0  0  0  0  0  0  0  0  0  0
    6.6460   -2.6990    7.4010 C   0  0  0  0  0  0  0  0  0  0  0  0
    7.8320   -2.4200    6.7110 C   0  0  0  0  0  3  0  0  0  0  0  0
    8.4410   -1.1720    6.8420 C   0  0  0  0  0  3  0  0  0  0  0  0
    7.8770   -0.2060    7.6760 C   0  0  0  0  0  3  0  0  0  0  0  0
    6.7090   -0.4910    8.3850 C   0  0  0  0  0  3  0  0  0  0  0  0
    6.1000   -1.7410    8.2610 C   0  0  0  0  0  3  0  0  0  0  0  0
    4.0440   -4.2560    3.0430 O   0  0  0  0  0  0  0  0  0  0  0  0
    4.9990   -4.0550    3.8500 C   0  0  0  0  0  0  0  0  0  0  0  0
    6.2480   -4.1150    3.6690 O   0  0  0  0  0  1  0  0  0  0  0  0
  1  2  1  0  0  0  0
  1 15  2  3  0  0  0
  2  3  1  0  0  0  0
  3  4  2  0  0  0  0
  3  7  1  0  0  0  0
  4  5  1  0  0  0  0
  5  6  2  0  0  0  0
  6  8  1  0  0  0  0
  7  6  1  0  0  0  0
  8 14  2  0  0  0  0
  8  9  1  0  0  0  0
  9 10  2  0  0  0  0
 10 11  1  0  0  0  0
 11 12  1  0  0  0  0
 13 11  2  0  0  0  0
 14 13  1  0  0  0  0
 15 18  1  0  0  0  0
 15 16  1  0  0  0  0
 16 19  1  0  0  0  0
 16 17  2  0  0  0  0
 19 24  1  0  0  0  0
 20 21  1  0  0  0  0
 20 19  2  0  0  0  0
 21 22  2  0  0  0  0
 22 23  1  0  0  0  0
 24 23  2  0  0  0  0
 25 26  2  0  0  0  0
 26  1  1  0  0  0  0
 27 26  1  0  0  0  0
M  END
>  <minimizedAffinity>
-6.67807102

$$$$
