
 OpenBabel09132204463D

 27 29  0  0  0  0  0  0  0  0999 V2000
    5.1660   -4.1880    5.8940 C   0  0  0  0  0  0  0  0  0  0  0  0
    4.5580   -5.0910    6.6890 C   0  0  0  0  0  2  0  0  0  0  0  0
    4.6000   -5.1070    8.1110 C   0  0  0  0  0  0  0  0  0  0  0  0
    5.5180   -5.6690    8.9890 C   0  0  0  0  0  3  0  0  0  0  0  0
    5.1050   -5.3710   10.3100 C   0  0  0  0  0  3  0  0  0  0  0  0
    3.9570   -4.6190   10.1970 C   0  0  0  0  0  0  0  0  0  0  0  0
    3.6640   -4.4450    8.8770 O   0  0  0  0  0  0  0  0  0  0  0  0
    3.0400   -3.9960   11.1490 C   0  0  0  0  0  0  0  0  0  0  0  0
    1.6550   -3.9990   10.9150 C   0  0  0  0  0  3  0  0  0  0  0  0
    0.7730   -3.4010   11.8210 C   0  0  0  0  0  3  0  0  0  0  0  0
    1.2730   -2.7950   12.9660 C   0  0  0  0  0  0  0  0  0  0  0  0
    0.4280   -2.2210   13.8320 F   0  0  0  0  0  0  0  0  0  0  0  0
    2.6370   -2.7750   13.2230 C   0  0  0  0  0  3  0  0  0  0  0  0
    3.5170   -3.3750   12.3160 C   0  0  0  0  0  3  0  0  0  0  0  0
    6.0370   -3.2180    6.3780 N   0  0  0  0  0  4  0  0  0  0  0  0
    5.8020   -1.9610    6.8900 C   0  0  0  0  0  0  0  0  0  0  0  0
    6.7440   -1.1730    7.0050 O   0  0  0  0  0  0  0  0  0  0  0  0
    7.0220   -3.3860    6.2310 H   0  0  0  0  0  0  0  0  0  0  0  0
    4.4830   -1.5530    7.4190 C   0  0  0  0  0  0  0  0  0  0  0  0
    4.3940   -1.1640    8.7620 C   0  0  0  0  0  3  0  0  0  0  0  0
    3.1550   -0.8450    9.3180 C   0  0  0  0  0  3  0  0  0  0  0  0
    2.0000   -0.9310    8.5390 C   0  0  0  0  0  3  0  0  0  0  0  0
    2.0830   -1.3440    7.2090 C   0  0  0  0  0  3  0  0  0  0  0  0
    3.3200   -1.6690    6.6510 C   0  0  0  0  0  3  0  0  0  0  0  0
    5.2510   -5.5990    3.9680 O   0  0  0  0  0  1  0  0  0  0  0  0
    4.8900   -4.4580    4.3810 C   0  0  0  0  0  0  0  0  0  0  0  0
    4.3710   -3.4910    3.7560 O   0  0  0  0  0  0  0  0  0  0  0  0
  1 15  2  0  0  0  0
  1  2  1  0  0  0  0
  2  3  1  0  0  0  0
  3  7  1  0  0  0  0
  3  4  2  0  0  0  0
  4  5  1  0  0  0  0
  6  5  2  0  0  0  0
  6  8  1  0  0  0  0
  7  6  1  0  0  0  0
  8 14  1  0  0  0  0
  9  8  2  0  0  0  0
  9 10  1  0  0  0  0
 10 11  2  0  0  0  0
 11 13  1  0  0  0  0
 11 12  1  0  0  0  0
 14 13  2  0  0  0  0
 15 16  1  0  0  0  0
 16 17  2  0  0  0  0
 16 19  1  0  0  0  0
 18 15  1  0  0  0  0
 19 20  1  0  0  0  0
 20 21  2  0  0  0  0
 22 21  1  0  0  0  0
 23 22  2  0  0  0  0
 24 23  1  0  0  0  0
 24 19  2  0  0  0  0
 25 26  1  0  0  0  0
 26  1  1  0  0  0  0
 27 26  2  0  0  0  0
M  END
>  <minimizedAffinity>
-6.58361149

$$$$
