
 OpenBabel09132204463D

 27 29  0  0  0  0  0  0  0  0999 V2000
    6.0430   -3.2360    9.6390 C   0  0  0  0  0  0  0  0  0  0  0  0
    5.3150   -2.9250   10.7310 C   0  0  0  0  0  2  0  0  0  0  0  0
    4.9370   -1.6120   11.1290 C   0  0  0  0  0  0  0  0  0  0  0  0
    3.7500   -1.1310   11.6700 C   0  0  0  0  0  3  0  0  0  0  0  0
    3.9070    0.2550   11.9120 C   0  0  0  0  0  3  0  0  0  0  0  0
    5.1900    0.5730   11.5270 C   0  0  0  0  0  0  0  0  0  0  0  0
    5.8140   -0.5510   11.0750 O   0  0  0  0  0  0  0  0  0  0  0  0
    5.9830    1.8020   11.5120 C   0  0  0  0  0  0  0  0  0  0  0  0
    6.7320    2.1550   10.3780 C   0  0  0  0  0  3  0  0  0  0  0  0
    7.4950    3.3270   10.3590 C   0  0  0  0  0  3  0  0  0  0  0  0
    7.5120    4.1510   11.4770 C   0  0  0  0  0  0  0  0  0  0  0  0
    8.2440    5.2730   11.4580 F   0  0  0  0  0  0  0  0  0  0  0  0
    6.7820    3.8280   12.6110 C   0  0  0  0  0  3  0  0  0  0  0  0
    6.0190    2.6560   12.6280 C   0  0  0  0  0  3  0  0  0  0  0  0
    6.6360   -2.2770    8.8260 N   0  0  0  0  0  4  0  0  0  0  0  0
    6.2190   -1.7070    7.6430 C   0  0  0  0  0  0  0  0  0  0  0  0
    7.0320   -1.0770    6.9600 O   0  0  0  0  0  0  0  0  0  0  0  0
    7.5870   -2.0250    9.0500 H   0  0  0  0  0  0  0  0  0  0  0  0
    4.8040   -1.7170    7.2110 C   0  0  0  0  0  0  0  0  0  0  0  0
    4.4390   -2.5490    6.1460 C   0  0  0  0  0  3  0  0  0  0  0  0
    3.1300   -2.5290    5.6600 C   0  0  0  0  0  3  0  0  0  0  0  0
    2.1910   -1.6670    6.2260 C   0  0  0  0  0  3  0  0  0  0  0  0
    2.5600   -0.8180    7.2710 C   0  0  0  0  0  3  0  0  0  0  0  0
    3.8690   -0.8310    7.7560 C   0  0  0  0  0  3  0  0  0  0  0  0
    6.3720   -5.1890    8.3020 O   0  0  0  0  0  0  0  0  0  0  0  0
    6.2520   -4.7770    9.4940 C   0  0  0  0  0  0  0  0  0  0  0  0
    6.2420   -5.4190   10.5810 O   0  0  0  0  0  1  0  0  0  0  0  0
  1  2  1  0  0  0  0
  2  3  1  0  0  0  0
  3  4  2  0  0  0  0
  4  5  1  0  0  0  0
  6  5  2  0  0  0  0
  7  3  1  0  0  0  0
  7  6  1  0  0  0  0
  8  6  1  0  0  0  0
  8 14  1  0  0  0  0
  9  8  2  0  0  0  0
 10  9  1  0  0  0  0
 10 11  2  0  0  0  0
 11 13  1  0  0  0  0
 12 11  1  0  0  0  0
 13 14  2  0  0  0  0
 15 18  1  0  0  0  0
 15  1  2  3  0  0  0
 16 15  1  0  0  0  0
 17 16  2  0  0  0  0
 19 16  1  0  0  0  0
 19 24  1  0  0  0  0
 20 19  2  0  0  0  0
 21 20  1  0  0  0  0
 21 22  2  0  0  0  0
 22 23  1  0  0  0  0
 23 24  2  0  0  0  0
 25 26  2  0  0  0  0
 26  1  1  0  0  0  0
 26 27  1  0  0  0  0
M  END
>  <minimizedAffinity>
-6.4858737

$$$$
