
 OpenBabel09132204463D

 27 29  0  0  0  0  0  0  0  0999 V2000
    3.1950   -2.8590   10.9780 C   0  0  0  0  0  0  0  0  0  0  0  0
    2.1560   -2.5030   10.1950 C   0  0  0  0  0  2  0  0  0  0  0  0
    2.2210   -2.2490    8.7960 C   0  0  0  0  0  0  0  0  0  0  0  0
    1.9090   -1.1100    8.0620 C   0  0  0  0  0  3  0  0  0  0  0  0
    2.1790   -1.3780    6.6990 C   0  0  0  0  0  3  0  0  0  0  0  0
    2.6650   -2.6650    6.6450 C   0  0  0  0  0  0  0  0  0  0  0  0
    2.7070   -3.1810    7.9060 O   0  0  0  0  0  0  0  0  0  0  0  0
    3.1270   -3.5440    5.5710 C   0  0  0  0  0  0  0  0  0  0  0  0
    3.2650   -4.9250    5.7880 C   0  0  0  0  0  3  0  0  0  0  0  0
    3.7110   -5.7700    4.7670 C   0  0  0  0  0  3  0  0  0  0  0  0
    4.0210   -5.2370    3.5230 C   0  0  0  0  0  0  0  0  0  0  0  0
    4.4490   -6.0460    2.5450 F   0  0  0  0  0  0  0  0  0  0  0  0
    3.8940   -3.8760    3.2800 C   0  0  0  0  0  3  0  0  0  0  0  0
    3.4480   -3.0330    4.3020 C   0  0  0  0  0  3  0  0  0  0  0  0
    4.5090   -2.8900   10.5250 N   0  0  0  0  0  4  0  0  0  0  0  0
    5.4250   -1.8820   10.3280 C   0  0  0  0  0  0  0  0  0  0  0  0
    6.4400   -2.1120    9.6640 O   0  0  0  0  0  0  0  0  0  0  0  0
    4.8350   -3.7730   10.1580 H   0  0  0  0  0  0  0  0  0  0  0  0
    5.3030   -0.5590   10.9780 C   0  0  0  0  0  0  0  0  0  0  0  0
    4.5160    0.4190   10.3570 C   0  0  0  0  0  3  0  0  0  0  0  0
    4.4380    1.7020   10.8990 C   0  0  0  0  0  3  0  0  0  0  0  0
    5.1580    2.0160   12.0520 C   0  0  0  0  0  3  0  0  0  0  0  0
    5.9640    1.0500   12.6570 C   0  0  0  0  0  3  0  0  0  0  0  0
    6.0490   -0.2330   12.1150 C   0  0  0  0  0  3  0  0  0  0  0  0
    2.8620   -2.0620   13.2060 O   0  0  0  0  0  1  0  0  0  0  0  0
    2.7610   -3.0820   12.4620 C   0  0  0  0  0  0  0  0  0  0  0  0
    2.3950   -4.2590   12.7360 O   0  0  0  0  0  0  0  0  0  0  0  0
  1 26  1  0  0  0  0
  2  1  1  0  0  0  0
  3  2  1  0  0  0  0
  4  3  2  0  0  0  0
  5  4  1  0  0  0  0
  6  5  2  0  0  0  0
  6  7  1  0  0  0  0
  7  3  1  0  0  0  0
  8  9  1  0  0  0  0
  8  6  1  0  0  0  0
 10  9  2  0  0  0  0
 11 10  1  0  0  0  0
 12 11  1  0  0  0  0
 13 11  2  0  0  0  0
 13 14  1  0  0  0  0
 14  8  2  0  0  0  0
 15  1  2  3  0  0  0
 16 15  1  0  0  0  0
 16 19  1  0  0  0  0
 17 16  2  0  0  0  0
 18 15  1  0  0  0  0
 19 24  1  0  0  0  0
 20 21  1  0  0  0  0
 20 19  2  0  0  0  0
 21 22  2  0  0  0  0
 22 23  1  0  0  0  0
 24 23  2  0  0  0  0
 26 27  2  0  0  0  0
 26 25  1  0  0  0  0
M  END
>  <minimizedAffinity>
-6.4092164

$$$$
