
 OpenBabel09132204463D

 30 32  0  0  0  0  0  0  0  0999 V2000
    8.0850   -2.5590    4.8540 C   0  0  0  0  0  0  0  0  0  0  0  0
    7.7520   -3.2230    3.7290 C   0  0  0  0  0  2  0  0  0  0  0  0
    8.4640   -3.1040    2.4560 C   0  0  0  0  0  0  0  0  0  0  0  0
    8.4850   -4.1760    1.5590 C   0  0  0  0  0  3  0  0  0  0  0  0
    9.0900   -4.0300    0.3090 C   0  0  0  0  0  3  0  0  0  0  0  0
    9.6560   -2.8060   -0.0490 C   0  0  0  0  0  0  0  0  0  0  0  0
    9.6760   -1.7430    0.8580 C   0  0  0  0  0  3  0  0  0  0  0  0
    9.0730   -1.8920    2.1060 C   0  0  0  0  0  3  0  0  0  0  0  0
   10.2200   -2.7120   -1.3010 O   0  0  0  0  0  0  0  0  0  0  0  0
   11.5880   -2.5380   -1.3500 C   0  0  0  0  0  0  0  0  0  0  0  0
   12.4530   -3.4050   -0.6700 C   0  0  0  0  0  3  0  0  0  0  0  0
   13.8320   -3.1930   -0.7090 C   0  0  0  0  0  3  0  0  0  0  0  0
   14.3520   -2.1060   -1.4120 C   0  0  0  0  0  3  0  0  0  0  0  0
   13.4920   -1.2240   -2.0700 C   0  0  0  0  0  3  0  0  0  0  0  0
   12.1110   -1.4350   -2.0330 C   0  0  0  0  0  0  0  0  0  0  0  0
   10.9880   -0.2050   -2.9410 Br  0  0  0  0  0  0  0  0  0  0  0  0
   10.5010   -2.4260    6.5600 O   0  0  0  0  0  0  0  0  0  0  0  0
   10.1690   -1.5740    5.7450 C   0  0  0  0  0  0  0  0  0  0  0  0
    9.1110   -1.6250    4.8610 N   0  0  0  0  0  4  0  0  0  0  0  0
    9.0840   -0.9400    4.1210 H   0  0  0  0  0  0  0  0  0  0  0  0
   11.0070   -0.3180    5.5580 C   0  0  0  0  0  2  0  0  0  0  0  0
   10.1640    0.9670    5.6220 C   0  0  0  0  0  3  0  0  0  0  0  0
   10.1020    1.5500    7.0440 C   0  0  0  0  0  2  0  0  0  0  0  0
    9.3520    2.8810    7.0920 C   0  0  0  0  0  2  0  0  0  0  0  0
    9.9280    3.8910    6.1090 C   0  0  0  0  0  2  0  0  0  0  0  0
    9.9710    3.3260    4.6940 C   0  0  0  0  0  2  0  0  0  0  0  0
   10.7350    2.0060    4.6420 C   0  0  0  0  0  2  0  0  0  0  0  0
    7.1670   -2.8760    6.0810 C   0  0  0  0  0  0  0  0  0  0  0  0
    6.8850   -4.1040    6.2180 O   0  0  0  0  0  0  0  0  0  0  0  0
    6.9600   -1.8980    6.8600 O   0  0  0  0  0  1  0  0  0  0  0  0
  1 19  2  0  0  0  0
  1 28  1  0  0  0  0
  2  1  1  0  0  0  0
  3  2  1  0  0  0  0
  4  3  2  0  0  0  0
  5  4  1  0  0  0  0
  6  5  2  0  0  0  0
  6  7  1  0  0  0  0
  7  8  2  0  0  0  0
  8  3  1  0  0  0  0
  9  6  1  0  0  0  0
 10  9  1  0  0  0  0
 10 11  1  0  0  0  0
 12 11  2  0  0  0  0
 13 12  1  0  0  0  0
 14 15  1  0  0  0  0
 14 13  2  0  0  0  0
 15 10  2  0  0  0  0
 16 15  1  0  0  0  0
 18 17  2  0  0  0  0
 19 18  1  0  0  0  0
 20 19  1  0  0  0  0
 21 22  1  0  0  0  0
 21 18  1  0  0  0  0
 22 23  1  0  0  0  0
 23 24  1  0  0  0  0
 25 24  1  0  0  0  0
 26 25  1  0  0  0  0
 27 26  1  0  0  0  0
 27 22  1  0  0  0  0
 28 29  2  0  0  0  0
 28 30  1  0  0  0  0
M  END
>  <minimizedAffinity>
-6.51645565

$$$$
