
 OpenBabel09132204463D

 30 32  0  0  0  0  0  0  0  0999 V2000
    8.9950   -3.4860    1.1430 C   0  0  0  0  0  0  0  0  0  0  0  0
    8.3650   -2.5470    1.8770 C   0  0  0  0  0  2  0  0  0  0  0  0
    8.9380   -1.2450    2.2220 C   0  0  0  0  0  0  0  0  0  0  0  0
    8.9550   -0.2120    1.2800 C   0  0  0  0  0  3  0  0  0  0  0  0
    9.4220    1.0540    1.6390 C   0  0  0  0  0  3  0  0  0  0  0  0
    9.8540    1.2890    2.9450 C   0  0  0  0  0  0  0  0  0  0  0  0
    9.8800    0.2520    3.8800 C   0  0  0  0  0  3  0  0  0  0  0  0
    9.4150   -1.0120    3.5180 C   0  0  0  0  0  3  0  0  0  0  0  0
   10.2840    2.5610    3.2490 O   0  0  0  0  0  0  0  0  0  0  0  0
   11.5440    2.6710    3.8010 C   0  0  0  0  0  0  0  0  0  0  0  0
   11.7620    2.4180    5.1620 C   0  0  0  0  0  3  0  0  0  0  0  0
   13.0390    2.5640    5.7060 C   0  0  0  0  0  3  0  0  0  0  0  0
   14.0990    2.9790    4.9000 C   0  0  0  0  0  3  0  0  0  0  0  0
   13.8810    3.2570    3.5480 C   0  0  0  0  0  3  0  0  0  0  0  0
   12.6040    3.1100    3.0000 C   0  0  0  0  0  0  0  0  0  0  0  0
   12.3620    3.5040    1.1610 Br  0  0  0  0  0  0  0  0  0  0  0  0
   10.2120   -4.0540   -1.4950 O   0  0  0  0  0  0  0  0  0  0  0  0
   10.8270   -3.6770   -0.5050 C   0  0  0  0  0  0  0  0  0  0  0  0
   10.3040   -3.3090    0.7190 N   0  0  0  0  0  4  0  0  0  0  0  0
   10.9140   -2.8360    1.3670 H   0  0  0  0  0  0  0  0  0  0  0  0
   12.3350   -3.4840   -0.5610 C   0  0  0  0  0  2  0  0  0  0  0  0
   12.7560   -2.4400   -1.6090 C   0  0  0  0  0  3  0  0  0  0  0  0
   11.8360   -1.2070   -1.6030 C   0  0  0  0  0  2  0  0  0  0  0  0
   12.3130   -0.1250   -2.5700 C   0  0  0  0  0  2  0  0  0  0  0  0
   13.7610    0.2690   -2.3120 C   0  0  0  0  0  2  0  0  0  0  0  0
   14.6800   -0.9470   -2.3390 C   0  0  0  0  0  2  0  0  0  0  0  0
   14.2150   -2.0210   -1.3610 C   0  0  0  0  0  2  0  0  0  0  0  0
    8.1550   -4.7860    0.9080 C   0  0  0  0  0  0  0  0  0  0  0  0
    7.8070   -5.3810    1.9730 O   0  0  0  0  0  1  0  0  0  0  0  0
    7.8010   -4.9840   -0.2920 O   0  0  0  0  0  0  0  0  0  0  0  0
  1  2  1  0  0  0  0
  2  3  1  0  0  0  0
  3  8  1  0  0  0  0
  4  5  1  0  0  0  0
  4  3  2  0  0  0  0
  5  6  2  0  0  0  0
  6  9  1  0  0  0  0
  6  7  1  0  0  0  0
  8  7  2  0  0  0  0
  9 10  1  0  0  0  0
 10 11  1  0  0  0  0
 11 12  2  0  0  0  0
 13 12  1  0  0  0  0
 14 13  2  0  0  0  0
 15 14  1  0  0  0  0
 15 10  2  0  0  0  0
 16 15  1  0  0  0  0
 17 18  2  0  0  0  0
 18 19  1  0  0  0  0
 19  1  2  0  0  0  0
 19 20  1  0  0  0  0
 21 18  1  0  0  0  0
 22 23  1  0  0  0  0
 22 27  1  0  0  0  0
 22 21  1  0  0  0  0
 24 25  1  0  0  0  0
 24 23  1  0  0  0  0
 26 25  1  0  0  0  0
 26 27  1  0  0  0  0
 28  1  1  0  0  0  0
 28 29  1  0  0  0  0
 30 28  2  0  0  0  0
M  END
>  <minimizedAffinity>
-6.72683811

$$$$
