
 OpenBabel09132204463D

 30 32  0  0  0  0  0  0  0  0999 V2000
   10.2100    3.0190    4.2770 C   0  0  0  0  0  0  0  0  0  0  0  0
   10.1800    3.2620    2.9510 C   0  0  0  0  0  2  0  0  0  0  0  0
   10.1840    2.2250    1.9190 C   0  0  0  0  0  0  0  0  0  0  0  0
    9.5230    1.0120    2.1400 C   0  0  0  0  0  3  0  0  0  0  0  0
    9.4540    0.0580    1.1220 C   0  0  0  0  0  3  0  0  0  0  0  0
   10.0290    0.3280   -0.1210 C   0  0  0  0  0  0  0  0  0  0  0  0
   10.7260    1.5190   -0.3350 C   0  0  0  0  0  3  0  0  0  0  0  0
   10.7960    2.4680    0.6830 C   0  0  0  0  0  3  0  0  0  0  0  0
    9.9120   -0.6390   -1.0930 O   0  0  0  0  0  0  0  0  0  0  0  0
   11.0520   -1.3560   -1.3910 C   0  0  0  0  0  0  0  0  0  0  0  0
   12.0850   -0.7900   -2.1500 C   0  0  0  0  0  3  0  0  0  0  0  0
   13.2180   -1.5430   -2.4640 C   0  0  0  0  0  3  0  0  0  0  0  0
   13.3160   -2.8680   -2.0390 C   0  0  0  0  0  3  0  0  0  0  0  0
   12.2770   -3.4440   -1.3040 C   0  0  0  0  0  3  0  0  0  0  0  0
   11.1430   -2.6920   -0.9870 C   0  0  0  0  0  0  0  0  0  0  0  0
    9.7610   -3.5240    0.0100 Br  0  0  0  0  0  0  0  0  0  0  0  0
   11.9940    1.9690    6.3940 O   0  0  0  0  0  0  0  0  0  0  0  0
   11.2490    1.2870    5.7010 C   0  0  0  0  0  0  0  0  0  0  0  0
   10.3310    1.7280    4.7690 N   0  0  0  0  0  4  0  0  0  0  0  0
    9.6550    1.0630    4.4250 H   0  0  0  0  0  0  0  0  0  0  0  0
   11.2000   -0.2230    5.8780 C   0  0  0  0  0  2  0  0  0  0  0  0
    9.8160   -0.8100    5.5510 C   0  0  0  0  0  3  0  0  0  0  0  0
    9.9130   -2.0730    4.6780 C   0  0  0  0  0  2  0  0  0  0  0  0
    8.5480   -2.7170    4.4380 C   0  0  0  0  0  2  0  0  0  0  0  0
    7.8210   -3.0070    5.7440 C   0  0  0  0  0  2  0  0  0  0  0  0
    7.7030   -1.7530    6.6040 C   0  0  0  0  0  2  0  0  0  0  0  0
    9.0670   -1.1190    6.8590 C   0  0  0  0  0  2  0  0  0  0  0  0
   10.1870    4.3080    5.1660 C   0  0  0  0  0  0  0  0  0  0  0  0
   10.9310    5.2440    4.7450 O   0  0  0  0  0  0  0  0  0  0  0  0
    9.3180    4.3050    6.0870 O   0  0  0  0  0  1  0  0  0  0  0  0
  1 19  2  0  0  0  0
  1 28  1  0  0  0  0
  2  1  1  0  0  0  0
  3  4  1  0  0  0  0
  3  2  1  0  0  0  0
  5  4  2  0  0  0  0
  6  5  1  0  0  0  0
  7  6  2  0  0  0  0
  7  8  1  0  0  0  0
  8  3  2  0  0  0  0
  9  6  1  0  0  0  0
 10  9  1  0  0  0  0
 10 15  1  0  0  0  0
 11 10  2  0  0  0  0
 12 11  1  0  0  0  0
 12 13  2  0  0  0  0
 13 14  1  0  0  0  0
 14 15  2  0  0  0  0
 15 16  1  0  0  0  0
 18 21  1  0  0  0  0
 18 17  2  0  0  0  0
 19 18  1  0  0  0  0
 20 19  1  0  0  0  0
 22 21  1  0  0  0  0
 22 27  1  0  0  0  0
 23 22  1  0  0  0  0
 24 23  1  0  0  0  0
 24 25  1  0  0  0  0
 25 26  1  0  0  0  0
 26 27  1  0  0  0  0
 28 30  1  0  0  0  0
 29 28  2  0  0  0  0
M  END
>  <minimizedAffinity>
-6.46697283

$$$$
