
 OpenBabel09132204463D

 30 32  0  0  0  0  0  0  0  0999 V2000
   10.0370    2.7650    0.3900 C   0  0  0  0  0  0  0  0  0  0  0  0
    9.4430    2.2110    1.4660 C   0  0  0  0  0  2  0  0  0  0  0  0
    9.4330    0.7770    1.7580 C   0  0  0  0  0  0  0  0  0  0  0  0
    9.5240    0.3280    3.0800 C   0  0  0  0  0  3  0  0  0  0  0  0
    9.4260   -1.0360    3.3630 C   0  0  0  0  0  3  0  0  0  0  0  0
    9.2200   -1.9470    2.3250 C   0  0  0  0  0  0  0  0  0  0  0  0
    9.1710   -1.5100    1.0000 C   0  0  0  0  0  3  0  0  0  0  0  0
    9.2700   -0.1480    0.7200 C   0  0  0  0  0  3  0  0  0  0  0  0
    9.1100   -3.2760    2.6650 O   0  0  0  0  0  0  0  0  0  0  0  0
    7.8470   -3.8260    2.6040 C   0  0  0  0  0  0  0  0  0  0  0  0
    6.9160   -3.6170    3.6300 C   0  0  0  0  0  3  0  0  0  0  0  0
    5.6530   -4.2070    3.5620 C   0  0  0  0  0  3  0  0  0  0  0  0
    5.3200   -5.0220    2.4810 C   0  0  0  0  0  3  0  0  0  0  0  0
    6.2530   -5.2550    1.4680 C   0  0  0  0  0  3  0  0  0  0  0  0
    7.5180   -4.6640    1.5330 C   0  0  0  0  0  0  0  0  0  0  0  0
    8.7490   -5.0160    0.1330 Br  0  0  0  0  0  0  0  0  0  0  0  0
   12.8060    2.8300   -0.6560 O   0  0  0  0  0  0  0  0  0  0  0  0
   11.9070    2.1210   -1.0920 C   0  0  0  0  0  0  0  0  0  0  0  0
   10.6290    1.9810   -0.5880 N   0  0  0  0  0  4  0  0  0  0  0  0
   10.0700    1.2160   -0.9350 H   0  0  0  0  0  0  0  0  0  0  0  0
   12.1600    1.1940   -2.2710 C   0  0  0  0  0  2  0  0  0  0  0  0
   12.5370   -0.2310   -1.8290 C   0  0  0  0  0  3  0  0  0  0  0  0
   11.4790   -1.2670   -2.2490 C   0  0  0  0  0  2  0  0  0  0  0  0
   11.8990   -2.6950   -1.9040 C   0  0  0  0  0  2  0  0  0  0  0  0
   13.2650   -3.0390   -2.4820 C   0  0  0  0  0  2  0  0  0  0  0  0
   14.3210   -2.0280   -2.0510 C   0  0  0  0  0  2  0  0  0  0  0  0
   13.9110   -0.6030   -2.4110 C   0  0  0  0  0  2  0  0  0  0  0  0
    9.9100    4.3240    0.3200 C   0  0  0  0  0  0  0  0  0  0  0  0
    8.8870    4.7360   -0.3060 O   0  0  0  0  0  0  0  0  0  0  0  0
   10.7490    4.9600    1.0250 O   0  0  0  0  0  1  0  0  0  0  0  0
  1  2  1  0  0  0  0
  2  3  1  0  0  0  0
  3  4  1  0  0  0  0
  4  5  2  0  0  0  0
  6  9  1  0  0  0  0
  6  5  1  0  0  0  0
  7  6  2  0  0  0  0
  8  7  1  0  0  0  0
  8  3  2  0  0  0  0
 10  9  1  0  0  0  0
 10 11  1  0  0  0  0
 12 11  2  0  0  0  0
 13 12  1  0  0  0  0
 14 15  1  0  0  0  0
 14 13  2  0  0  0  0
 15 10  2  0  0  0  0
 16 15  1  0  0  0  0
 18 17  2  0  0  0  0
 18 19  1  0  0  0  0
 19  1  2  0  0  0  0
 20 19  1  0  0  0  0
 21 22  1  0  0  0  0
 21 18  1  0  0  0  0
 23 24  1  0  0  0  0
 23 22  1  0  0  0  0
 25 26  1  0  0  0  0
 25 24  1  0  0  0  0
 27 26  1  0  0  0  0
 27 22  1  0  0  0  0
 28  1  1  0  0  0  0
 28 30  1  0  0  0  0
 29 28  2  0  0  0  0
M  END
>  <minimizedAffinity>
-7.34878302

$$$$
