
 OpenBabel09132204463D

 30 32  0  0  0  0  0  0  0  0999 V2000
   11.1500    4.1480    2.8320 C   0  0  0  0  0  0  0  0  0  0  0  0
   10.9540    4.1080    1.4990 C   0  0  0  0  0  2  0  0  0  0  0  0
   10.8600    2.8780    0.7130 C   0  0  0  0  0  0  0  0  0  0  0  0
    9.9370    1.8880    1.0660 C   0  0  0  0  0  3  0  0  0  0  0  0
    9.7890    0.7530    0.2640 C   0  0  0  0  0  3  0  0  0  0  0  0
   10.5490    0.6220   -0.8990 C   0  0  0  0  0  0  0  0  0  0  0  0
   11.5010    1.5870   -1.2350 C   0  0  0  0  0  3  0  0  0  0  0  0
   11.6500    2.7160   -0.4320 C   0  0  0  0  0  3  0  0  0  0  0  0
   10.3460   -0.5060   -1.6620 O   0  0  0  0  0  0  0  0  0  0  0  0
   11.4110   -1.3760   -1.7730 C   0  0  0  0  0  0  0  0  0  0  0  0
   12.4560   -1.1300   -2.6730 C   0  0  0  0  0  3  0  0  0  0  0  0
   13.5090   -2.0390   -2.7890 C   0  0  0  0  0  3  0  0  0  0  0  0
   13.5140   -3.2030   -2.0230 C   0  0  0  0  0  3  0  0  0  0  0  0
   12.4620   -3.4660   -1.1430 C   0  0  0  0  0  3  0  0  0  0  0  0
   11.4070   -2.5570   -1.0220 C   0  0  0  0  0  0  0  0  0  0  0  0
   10.0020   -2.9630    0.1840 Br  0  0  0  0  0  0  0  0  0  0  0  0
    9.4190    2.8510    4.8540 O   0  0  0  0  0  0  0  0  0  0  0  0
   10.5490    2.4830    4.5570 C   0  0  0  0  0  0  0  0  0  0  0  0
   11.3620    2.9880    3.5630 N   0  0  0  0  0  4  0  0  0  0  0  0
   12.1800    2.4550    3.3100 H   0  0  0  0  0  0  0  0  0  0  0  0
   11.1780    1.2870    5.2550 C   0  0  0  0  0  2  0  0  0  0  0  0
   10.2680    0.0470    5.2320 C   0  0  0  0  0  3  0  0  0  0  0  0
    9.9690   -0.4280    3.8000 C   0  0  0  0  0  2  0  0  0  0  0  0
    9.1520   -1.7190    3.7760 C   0  0  0  0  0  2  0  0  0  0  0  0
    9.8110   -2.8220    4.5940 C   0  0  0  0  0  2  0  0  0  0  0  0
   10.0890   -2.3640    6.0210 C   0  0  0  0  0  2  0  0  0  0  0  0
   10.9200   -1.0850    6.0460 C   0  0  0  0  0  2  0  0  0  0  0  0
   11.2010    5.5940    3.4300 C   0  0  0  0  0  0  0  0  0  0  0  0
   12.2500    6.2420    3.1370 O   0  0  0  0  0  0  0  0  0  0  0  0
   10.1300    5.9790    3.9880 O   0  0  0  0  0  1  0  0  0  0  0  0
  1 28  1  0  0  0  0
  1 19  2  0  0  0  0
  2  1  1  0  0  0  0
  3  4  1  0  0  0  0
  3  2  1  0  0  0  0
  5  4  2  0  0  0  0
  6  5  1  0  0  0  0
  7  6  2  0  0  0  0
  7  8  1  0  0  0  0
  8  3  2  0  0  0  0
  9  6  1  0  0  0  0
 10  9  1  0  0  0  0
 10 15  1  0  0  0  0
 11 10  2  0  0  0  0
 12 11  1  0  0  0  0
 12 13  2  0  0  0  0
 13 14  1  0  0  0  0
 14 15  2  0  0  0  0
 15 16  1  0  0  0  0
 18 17  2  0  0  0  0
 18 21  1  0  0  0  0
 19 18  1  0  0  0  0
 20 19  1  0  0  0  0
 22 21  1  0  0  0  0
 22 27  1  0  0  0  0
 23 22  1  0  0  0  0
 24 23  1  0  0  0  0
 24 25  1  0  0  0  0
 25 26  1  0  0  0  0
 26 27  1  0  0  0  0
 28 30  1  0  0  0  0
 29 28  2  0  0  0  0
M  END
>  <minimizedAffinity>
-7.05926991

$$$$
