
 OpenBabel09132204463D

 30 32  0  0  0  0  0  0  0  0999 V2000
    9.4460    8.4980    0.4400 C   0  0  0  0  0  0  0  0  0  0  0  0
    9.5560    7.5110   -0.4710 C   0  0  0  0  0  2  0  0  0  0  0  0
   10.0650    6.1700   -0.1810 C   0  0  0  0  0  0  0  0  0  0  0  0
    9.1800    5.0950   -0.0500 C   0  0  0  0  0  3  0  0  0  0  0  0
    9.6730    3.8020    0.1410 C   0  0  0  0  0  3  0  0  0  0  0  0
   11.0510    3.5850    0.1800 C   0  0  0  0  0  0  0  0  0  0  0  0
   11.9400    4.6590    0.0920 C   0  0  0  0  0  3  0  0  0  0  0  0
   11.4450    5.9480   -0.0950 C   0  0  0  0  0  3  0  0  0  0  0  0
   11.4810    2.2890    0.3490 O   0  0  0  0  0  0  0  0  0  0  0  0
   11.3890    1.4600   -0.7500 C   0  0  0  0  0  0  0  0  0  0  0  0
   12.0760    1.7510   -1.9360 C   0  0  0  0  0  3  0  0  0  0  0  0
   11.9460    0.9150   -3.0460 C   0  0  0  0  0  3  0  0  0  0  0  0
   11.1160   -0.2040   -2.9830 C   0  0  0  0  0  3  0  0  0  0  0  0
   10.4080   -0.4840   -1.8120 C   0  0  0  0  0  3  0  0  0  0  0  0
   10.5390    0.3500   -0.6990 C   0  0  0  0  0  0  0  0  0  0  0  0
    9.5530   -0.0740    0.8650 Br  0  0  0  0  0  0  0  0  0  0  0  0
   11.9000    9.5380    1.7300 O   0  0  0  0  0  0  0  0  0  0  0  0
   11.1010    8.7720    2.2560 C   0  0  0  0  0  0  0  0  0  0  0  0
    9.8990    8.3300    1.7410 N   0  0  0  0  0  4  0  0  0  0  0  0
    9.2620    7.8640    2.3690 H   0  0  0  0  0  0  0  0  0  0  0  0
   11.3370    8.2640    3.6690 C   0  0  0  0  0  2  0  0  0  0  0  0
   11.9120    6.8370    3.6940 C   0  0  0  0  0  3  0  0  0  0  0  0
   12.8610    6.6140    4.8840 C   0  0  0  0  0  2  0  0  0  0  0  0
   13.3530    5.1700    4.9700 C   0  0  0  0  0  2  0  0  0  0  0  0
   12.1970    4.1790    4.9960 C   0  0  0  0  0  2  0  0  0  0  0  0
   11.2650    4.3810    3.8070 C   0  0  0  0  0  2  0  0  0  0  0  0
   10.7600    5.8180    3.7300 C   0  0  0  0  0  2  0  0  0  0  0  0
    8.8610    9.8340   -0.1280 C   0  0  0  0  0  0  0  0  0  0  0  0
    9.4020   10.2230   -1.2070 O   0  0  0  0  0  0  0  0  0  0  0  0
    7.8270   10.2610    0.4680 O   0  0  0  0  0  1  0  0  0  0  0  0
  1 19  2  0  0  0  0
  2  3  1  0  0  0  0
  2  1  1  0  0  0  0
  3  8  2  0  0  0  0
  3  4  1  0  0  0  0
  4  5  2  0  0  0  0
  5  6  1  0  0  0  0
  6  9  1  0  0  0  0
  7  6  2  0  0  0  0
  8  7  1  0  0  0  0
 10 15  1  0  0  0  0
 10  9  1  0  0  0  0
 11 10  2  0  0  0  0
 12 13  2  0  0  0  0
 12 11  1  0  0  0  0
 13 14  1  0  0  0  0
 14 15  2  0  0  0  0
 15 16  1  0  0  0  0
 17 18  2  0  0  0  0
 18 21  1  0  0  0  0
 19 18  1  0  0  0  0
 19 20  1  0  0  0  0
 21 22  1  0  0  0  0
 22 27  1  0  0  0  0
 22 23  1  0  0  0  0
 23 24  1  0  0  0  0
 24 25  1  0  0  0  0
 26 25  1  0  0  0  0
 27 26  1  0  0  0  0
 28  1  1  0  0  0  0
 28 30  1  0  0  0  0
 29 28  2  0  0  0  0
M  END
>  <minimizedAffinity>
-6.3789463

$$$$
