
 OpenBabel09132204463D

 30 32  0  0  0  0  0  0  0  0999 V2000
   10.3660    2.7550    3.8710 C   0  0  0  0  0  0  0  0  0  0  0  0
   10.7550    3.6100    2.9030 C   0  0  0  0  0  2  0  0  0  0  0  0
   11.1740    3.2050    1.5610 C   0  0  0  0  0  0  0  0  0  0  0  0
   12.5300    3.2070    1.2180 C   0  0  0  0  0  3  0  0  0  0  0  0
   12.9340    2.7380   -0.0340 C   0  0  0  0  0  3  0  0  0  0  0  0
   11.9840    2.2500   -0.9320 C   0  0  0  0  0  0  0  0  0  0  0  0
   10.6250    2.2840   -0.6120 C   0  0  0  0  0  3  0  0  0  0  0  0
   10.2230    2.7550    0.6370 C   0  0  0  0  0  3  0  0  0  0  0  0
   12.4410    1.7810   -2.1430 O   0  0  0  0  0  0  0  0  0  0  0  0
   12.8890    0.4760   -2.1690 C   0  0  0  0  0  0  0  0  0  0  0  0
   14.2370    0.1690   -1.9420 C   0  0  0  0  0  3  0  0  0  0  0  0
   14.6740   -1.1550   -2.0030 C   0  0  0  0  0  3  0  0  0  0  0  0
   13.7730   -2.1750   -2.3070 C   0  0  0  0  0  3  0  0  0  0  0  0
   12.4340   -1.8710   -2.5600 C   0  0  0  0  0  3  0  0  0  0  0  0
   11.9930   -0.5460   -2.4990 C   0  0  0  0  0  0  0  0  0  0  0  0
   10.1650   -0.1880   -2.8540 Br  0  0  0  0  0  0  0  0  0  0  0  0
    8.5480    1.0030    2.3240 O   0  0  0  0  0  0  0  0  0  0  0  0
    9.4810    0.6120    3.0140 C   0  0  0  0  0  0  0  0  0  0  0  0
   10.4140    1.3820    3.6790 N   0  0  0  0  0  4  0  0  0  0  0  0
   11.2340    0.9180    4.0400 H   0  0  0  0  0  0  0  0  0  0  0  0
    9.7730   -0.8750    3.1450 C   0  0  0  0  0  2  0  0  0  0  0  0
    9.1440   -1.7000    2.0100 C   0  0  0  0  0  3  0  0  0  0  0  0
   10.0980   -1.8640    0.8140 C   0  0  0  0  0  2  0  0  0  0  0  0
    9.5170   -2.7690   -0.2710 C   0  0  0  0  0  2  0  0  0  0  0  0
    9.0970   -4.1230    0.2850 C   0  0  0  0  0  2  0  0  0  0  0  0
    8.1340   -3.9670    1.4560 C   0  0  0  0  0  2  0  0  0  0  0  0
    8.7200   -3.0780    2.5480 C   0  0  0  0  0  2  0  0  0  0  0  0
    9.9560    3.4490    5.2130 C   0  0  0  0  0  0  0  0  0  0  0  0
   10.8910    4.0990    5.7700 O   0  0  0  0  0  1  0  0  0  0  0  0
    8.7190    3.4040    5.4810 O   0  0  0  0  0  0  0  0  0  0  0  0
  1 28  1  0  0  0  0
  2  1  1  0  0  0  0
  3  2  1  0  0  0  0
  4  3  1  0  0  0  0
  5  4  2  0  0  0  0
  6  7  2  0  0  0  0
  6  5  1  0  0  0  0
  7  8  1  0  0  0  0
  8  3  2  0  0  0  0
  9  6  1  0  0  0  0
 10  9  1  0  0  0  0
 10 11  1  0  0  0  0
 12 11  2  0  0  0  0
 13 12  1  0  0  0  0
 14 15  1  0  0  0  0
 14 13  2  0  0  0  0
 15 10  2  0  0  0  0
 16 15  1  0  0  0  0
 17 18  2  0  0  0  0
 18 21  1  0  0  0  0
 18 19  1  0  0  0  0
 19  1  2  0  0  0  0
 19 20  1  0  0  0  0
 22 27  1  0  0  0  0
 22 21  1  0  0  0  0
 23 22  1  0  0  0  0
 24 25  1  0  0  0  0
 24 23  1  0  0  0  0
 25 26  1  0  0  0  0
 26 27  1  0  0  0  0
 28 30  2  0  0  0  0
 28 29  1  0  0  0  0
M  END
>  <minimizedAffinity>
-6.47529984

$$$$
