
 OpenBabel09132200173D

 30 32  0  0  0  0  0  0  0  0999 V2000
    9.7950   -0.7360    4.9200 C   0  0  0  0  0  0  0  0  0  0  0  0
    9.2600   -1.6440    4.0790 C   0  0  0  0  0  2  0  0  0  0  0  0
    9.4900   -1.6690    2.6340 C   0  0  0  0  0  0  0  0  0  0  0  0
    9.1310   -0.5710    1.8460 C   0  0  0  0  0  3  0  0  0  0  0  0
    9.4300   -0.5610    0.4820 C   0  0  0  0  0  3  0  0  0  0  0  0
   10.1060   -1.6420   -0.0870 C   0  0  0  0  0  0  0  0  0  0  0  0
   10.4300   -2.7600    0.6850 C   0  0  0  0  0  3  0  0  0  0  0  0
   10.1280   -2.7680    2.0450 C   0  0  0  0  0  3  0  0  0  0  0  0
   10.3940   -1.5700   -1.4310 O   0  0  0  0  0  0  0  0  0  0  0  0
   11.7170   -1.7300   -1.7880 C   0  0  0  0  0  0  0  0  0  0  0  0
   12.2910   -3.0040   -1.8880 C   0  0  0  0  0  3  0  0  0  0  0  0
   13.6390   -3.1420   -2.2220 C   0  0  0  0  0  3  0  0  0  0  0  0
   14.4230   -2.0100   -2.4400 C   0  0  0  0  0  3  0  0  0  0  0  0
   13.8630   -0.7370   -2.3170 C   0  0  0  0  0  3  0  0  0  0  0  0
   12.5130   -0.5960   -1.9840 C   0  0  0  0  0  0  0  0  0  0  0  0
   11.8020    1.1550   -1.8250 Br  0  0  0  0  0  0  0  0  0  0  0  0
    9.4790    2.1720    5.3760 O   0  0  0  0  0  0  0  0  0  0  0  0
   10.3060    1.6640    4.6280 C   0  0  0  0  0  0  0  0  0  0  0  0
   10.5600    0.3190    4.4480 N   0  0  0  0  0  4  0  0  0  0  0  0
   11.4000    0.0630    3.9510 H   0  0  0  0  0  0  0  0  0  0  0  0
   11.2610    2.5370    3.8290 C   0  0  0  0  0  2  0  0  0  0  0  0
   10.5290    3.4450    2.8260 C   0  0  0  0  0  3  0  0  0  0  0  0
   11.1160    4.8670    2.7960 C   0  0  0  0  0  2  0  0  0  0  0  0
   10.4600    5.7420    1.7280 C   0  0  0  0  0  2  0  0  0  0  0  0
   10.5190    5.0950    0.3510 C   0  0  0  0  0  2  0  0  0  0  0  0
    9.9190    3.6930    0.3700 C   0  0  0  0  0  2  0  0  0  0  0  0
   10.5840    2.8140    1.4240 C   0  0  0  0  0  2  0  0  0  0  0  0
    9.3980   -0.9410    6.4210 C   0  0  0  0  0  0  0  0  0  0  0  0
    8.2440   -0.5090    6.7180 O   0  0  0  0  0  0  0  0  0  0  0  0
   10.2060   -1.6470    7.0950 O   0  0  0  0  0  1  0  0  0  0  0  0
  1 28  1  0  0  0  0
  2  1  1  0  0  0  0
  3  2  1  0  0  0  0
  4  3  2  0  0  0  0
  5  4  1  0  0  0  0
  6  5  2  0  0  0  0
  6  7  1  0  0  0  0
  7  8  2  0  0  0  0
  8  3  1  0  0  0  0
  9  6  1  0  0  0  0
 10  9  1  0  0  0  0
 11 10  1  0  0  0  0
 12 11  2  0  0  0  0
 13 14  2  0  0  0  0
 13 12  1  0  0  0  0
 14 15  1  0  0  0  0
 15 16  1  0  0  0  0
 15 10  2  0  0  0  0
 18 17  2  0  0  0  0
 19 18  1  0  0  0  0
 19  1  2  0  0  0  0
 20 19  1  0  0  0  0
 21 18  1  0  0  0  0
 22 21  1  0  0  0  0
 23 22  1  0  0  0  0
 24 23  1  0  0  0  0
 25 26  1  0  0  0  0
 25 24  1  0  0  0  0
 26 27  1  0  0  0  0
 27 22  1  0  0  0  0
 28 29  2  0  0  0  0
 28 30  1  0  0  0  0
M  END
>  <minimizedAffinity>
-7.57755947

$$$$

 OpenBabel09132200173D

 30 32  0  0  0  0  0  0  0  0999 V2000
    9.7840   -0.7730    4.9200 C   0  0  0  0  0  0  0  0  0  0  0  0
    9.2330   -1.6820    4.0900 C   0  0  0  0  0  2  0  0  0  0  0  0
    9.4580   -1.7270    2.6450 C   0  0  0  0  0  0  0  0  0  0  0  0
    9.1420   -0.6210    1.8500 C   0  0  0  0  0  3  0  0  0  0  0  0
    9.4380   -0.6350    0.4850 C   0  0  0  0  0  3  0  0  0  0  0  0
   10.0670   -1.7470   -0.0770 C   0  0  0  0  0  0  0  0  0  0  0  0
   10.3470   -2.8710    0.7020 C   0  0  0  0  0  3  0  0  0  0  0  0
   10.0480   -2.8560    2.0640 C   0  0  0  0  0  3  0  0  0  0  0  0
   10.3540   -1.6960   -1.4230 O   0  0  0  0  0  0  0  0  0  0  0  0
   11.3480   -0.8210   -1.8090 C   0  0  0  0  0  0  0  0  0  0  0  0
   11.0580    0.5160   -2.1090 C   0  0  0  0  0  3  0  0  0  0  0  0
   12.0740    1.3770   -2.5270 C   0  0  0  0  0  3  0  0  0  0  0  0
   13.3790    0.9040   -2.6630 C   0  0  0  0  0  3  0  0  0  0  0  0
   13.6680   -0.4350   -2.3900 C   0  0  0  0  0  3  0  0  0  0  0  0
   12.6530   -1.2990   -1.9700 C   0  0  0  0  0  0  0  0  0  0  0  0
   13.0990   -3.1080   -1.6160 Br  0  0  0  0  0  0  0  0  0  0  0  0
    9.5510    2.1410    5.3920 O   0  0  0  0  0  0  0  0  0  0  0  0
   10.3470    1.6150    4.6230 C   0  0  0  0  0  0  0  0  0  0  0  0
   10.5640    0.2650    4.4320 N   0  0  0  0  0  4  0  0  0  0  0  0
   11.3850   -0.0100    3.9150 H   0  0  0  0  0  0  0  0  0  0  0  0
   11.3050    2.4670    3.8040 C   0  0  0  0  0  2  0  0  0  0  0  0
   10.5810    3.3070    2.7380 C   0  0  0  0  0  3  0  0  0  0  0  0
   11.0410    4.7750    2.7440 C   0  0  0  0  0  2  0  0  0  0  0  0
   10.4020    5.5880    1.6200 C   0  0  0  0  0  2  0  0  0  0  0  0
   10.6290    4.9470    0.2570 C   0  0  0  0  0  2  0  0  0  0  0  0
   10.1530    3.4980    0.2390 C   0  0  0  0  0  2  0  0  0  0  0  0
   10.8050    2.6810    1.3510 C   0  0  0  0  0  2  0  0  0  0  0  0
    9.3890   -0.9540    6.4230 C   0  0  0  0  0  0  0  0  0  0  0  0
    8.2580   -0.4690    6.7270 O   0  0  0  0  0  0  0  0  0  0  0  0
   10.1690   -1.6930    7.0950 O   0  0  0  0  0  1  0  0  0  0  0  0
  1 28  1  0  0  0  0
  2  1  1  0  0  0  0
  3  2  1  0  0  0  0
  4  3  2  0  0  0  0
  5  4  1  0  0  0  0
  6  5  2  0  0  0  0
  6  7  1  0  0  0  0
  7  8  2  0  0  0  0
  8  3  1  0  0  0  0
  9  6  1  0  0  0  0
 10  9  1  0  0  0  0
 11 10  2  0  0  0  0
 12 11  1  0  0  0  0
 13 12  2  0  0  0  0
 13 14  1  0  0  0  0
 14 15  2  0  0  0  0
 15 10  1  0  0  0  0
 15 16  1  0  0  0  0
 18 17  2  0  0  0  0
 19 18  1  0  0  0  0
 19  1  2  0  0  0  0
 20 19  1  0  0  0  0
 21 18  1  0  0  0  0
 22 23  1  0  0  0  0
 22 21  1  0  0  0  0
 24 23  1  0  0  0  0
 25 24  1  0  0  0  0
 26 25  1  0  0  0  0
 26 27  1  0  0  0  0
 27 22  1  0  0  0  0
 28 29  2  0  0  0  0
 28 30  1  0  0  0  0
M  END
>  <minimizedAffinity>
-7.47062683

$$$$

 OpenBabel09132200173D

 30 32  0  0  0  0  0  0  0  0999 V2000
   10.0370    2.7650    0.3900 C   0  0  0  0  0  0  0  0  0  0  0  0
    9.4430    2.2110    1.4660 C   0  0  0  0  0  2  0  0  0  0  0  0
    9.4330    0.7770    1.7580 C   0  0  0  0  0  0  0  0  0  0  0  0
    9.5240    0.3280    3.0800 C   0  0  0  0  0  3  0  0  0  0  0  0
    9.4260   -1.0360    3.3630 C   0  0  0  0  0  3  0  0  0  0  0  0
    9.2200   -1.9470    2.3250 C   0  0  0  0  0  0  0  0  0  0  0  0
    9.1710   -1.5100    1.0000 C   0  0  0  0  0  3  0  0  0  0  0  0
    9.2700   -0.1480    0.7200 C   0  0  0  0  0  3  0  0  0  0  0  0
    9.1100   -3.2760    2.6650 O   0  0  0  0  0  0  0  0  0  0  0  0
    7.8470   -3.8260    2.6040 C   0  0  0  0  0  0  0  0  0  0  0  0
    6.9160   -3.6170    3.6300 C   0  0  0  0  0  3  0  0  0  0  0  0
    5.6530   -4.2070    3.5620 C   0  0  0  0  0  3  0  0  0  0  0  0
    5.3200   -5.0220    2.4810 C   0  0  0  0  0  3  0  0  0  0  0  0
    6.2530   -5.2550    1.4680 C   0  0  0  0  0  3  0  0  0  0  0  0
    7.5180   -4.6640    1.5330 C   0  0  0  0  0  0  0  0  0  0  0  0
    8.7490   -5.0160    0.1330 Br  0  0  0  0  0  0  0  0  0  0  0  0
   12.8060    2.8300   -0.6560 O   0  0  0  0  0  0  0  0  0  0  0  0
   11.9070    2.1210   -1.0920 C   0  0  0  0  0  0  0  0  0  0  0  0
   10.6290    1.9810   -0.5880 N   0  0  0  0  0  4  0  0  0  0  0  0
   10.0700    1.2160   -0.9350 H   0  0  0  0  0  0  0  0  0  0  0  0
   12.1600    1.1940   -2.2710 C   0  0  0  0  0  2  0  0  0  0  0  0
   12.5370   -0.2310   -1.8290 C   0  0  0  0  0  3  0  0  0  0  0  0
   11.4790   -1.2670   -2.2490 C   0  0  0  0  0  2  0  0  0  0  0  0
   11.8990   -2.6950   -1.9040 C   0  0  0  0  0  2  0  0  0  0  0  0
   13.2650   -3.0390   -2.4820 C   0  0  0  0  0  2  0  0  0  0  0  0
   14.3210   -2.0280   -2.0510 C   0  0  0  0  0  2  0  0  0  0  0  0
   13.9110   -0.6030   -2.4110 C   0  0  0  0  0  2  0  0  0  0  0  0
    9.9100    4.3240    0.3200 C   0  0  0  0  0  0  0  0  0  0  0  0
    8.8870    4.7360   -0.3060 O   0  0  0  0  0  0  0  0  0  0  0  0
   10.7490    4.9600    1.0250 O   0  0  0  0  0  1  0  0  0  0  0  0
  1  2  1  0  0  0  0
  2  3  1  0  0  0  0
  3  4  1  0  0  0  0
  4  5  2  0  0  0  0
  6  9  1  0  0  0  0
  6  5  1  0  0  0  0
  7  6  2  0  0  0  0
  8  7  1  0  0  0  0
  8  3  2  0  0  0  0
 10  9  1  0  0  0  0
 10 11  1  0  0  0  0
 12 11  2  0  0  0  0
 13 12  1  0  0  0  0
 14 15  1  0  0  0  0
 14 13  2  0  0  0  0
 15 10  2  0  0  0  0
 16 15  1  0  0  0  0
 18 17  2  0  0  0  0
 18 19  1  0  0  0  0
 19  1  2  0  0  0  0
 20 19  1  0  0  0  0
 21 22  1  0  0  0  0
 21 18  1  0  0  0  0
 23 24  1  0  0  0  0
 23 22  1  0  0  0  0
 25 26  1  0  0  0  0
 25 24  1  0  0  0  0
 27 26  1  0  0  0  0
 27 22  1  0  0  0  0
 28  1  1  0  0  0  0
 28 30  1  0  0  0  0
 29 28  2  0  0  0  0
M  END
>  <minimizedAffinity>
-7.34878302

$$$$

 OpenBabel09132200173D

 30 32  0  0  0  0  0  0  0  0999 V2000
   11.1500    4.1480    2.8320 C   0  0  0  0  0  0  0  0  0  0  0  0
   10.9540    4.1080    1.4990 C   0  0  0  0  0  2  0  0  0  0  0  0
   10.8600    2.8780    0.7130 C   0  0  0  0  0  0  0  0  0  0  0  0
    9.9370    1.8880    1.0660 C   0  0  0  0  0  3  0  0  0  0  0  0
    9.7890    0.7530    0.2640 C   0  0  0  0  0  3  0  0  0  0  0  0
   10.5490    0.6220   -0.8990 C   0  0  0  0  0  0  0  0  0  0  0  0
   11.5010    1.5870   -1.2350 C   0  0  0  0  0  3  0  0  0  0  0  0
   11.6500    2.7160   -0.4320 C   0  0  0  0  0  3  0  0  0  0  0  0
   10.3460   -0.5060   -1.6620 O   0  0  0  0  0  0  0  0  0  0  0  0
   11.4110   -1.3760   -1.7730 C   0  0  0  0  0  0  0  0  0  0  0  0
   12.4560   -1.1300   -2.6730 C   0  0  0  0  0  3  0  0  0  0  0  0
   13.5090   -2.0390   -2.7890 C   0  0  0  0  0  3  0  0  0  0  0  0
   13.5140   -3.2030   -2.0230 C   0  0  0  0  0  3  0  0  0  0  0  0
   12.4620   -3.4660   -1.1430 C   0  0  0  0  0  3  0  0  0  0  0  0
   11.4070   -2.5570   -1.0220 C   0  0  0  0  0  0  0  0  0  0  0  0
   10.0020   -2.9630    0.1840 Br  0  0  0  0  0  0  0  0  0  0  0  0
    9.4190    2.8510    4.8540 O   0  0  0  0  0  0  0  0  0  0  0  0
   10.5490    2.4830    4.5570 C   0  0  0  0  0  0  0  0  0  0  0  0
   11.3620    2.9880    3.5630 N   0  0  0  0  0  4  0  0  0  0  0  0
   12.1800    2.4550    3.3100 H   0  0  0  0  0  0  0  0  0  0  0  0
   11.1780    1.2870    5.2550 C   0  0  0  0  0  2  0  0  0  0  0  0
   10.2680    0.0470    5.2320 C   0  0  0  0  0  3  0  0  0  0  0  0
    9.9690   -0.4280    3.8000 C   0  0  0  0  0  2  0  0  0  0  0  0
    9.1520   -1.7190    3.7760 C   0  0  0  0  0  2  0  0  0  0  0  0
    9.8110   -2.8220    4.5940 C   0  0  0  0  0  2  0  0  0  0  0  0
   10.0890   -2.3640    6.0210 C   0  0  0  0  0  2  0  0  0  0  0  0
   10.9200   -1.0850    6.0460 C   0  0  0  0  0  2  0  0  0  0  0  0
   11.2010    5.5940    3.4300 C   0  0  0  0  0  0  0  0  0  0  0  0
   12.2500    6.2420    3.1370 O   0  0  0  0  0  0  0  0  0  0  0  0
   10.1300    5.9790    3.9880 O   0  0  0  0  0  1  0  0  0  0  0  0
  1 28  1  0  0  0  0
  1 19  2  0  0  0  0
  2  1  1  0  0  0  0
  3  4  1  0  0  0  0
  3  2  1  0  0  0  0
  5  4  2  0  0  0  0
  6  5  1  0  0  0  0
  7  6  2  0  0  0  0
  7  8  1  0  0  0  0
  8  3  2  0  0  0  0
  9  6  1  0  0  0  0
 10  9  1  0  0  0  0
 10 15  1  0  0  0  0
 11 10  2  0  0  0  0
 12 11  1  0  0  0  0
 12 13  2  0  0  0  0
 13 14  1  0  0  0  0
 14 15  2  0  0  0  0
 15 16  1  0  0  0  0
 18 17  2  0  0  0  0
 18 21  1  0  0  0  0
 19 18  1  0  0  0  0
 20 19  1  0  0  0  0
 22 21  1  0  0  0  0
 22 27  1  0  0  0  0
 23 22  1  0  0  0  0
 24 23  1  0  0  0  0
 24 25  1  0  0  0  0
 25 26  1  0  0  0  0
 26 27  1  0  0  0  0
 28 30  1  0  0  0  0
 29 28  2  0  0  0  0
M  END
>  <minimizedAffinity>
-7.05926991

$$$$

 OpenBabel09132200173D

 30 32  0  0  0  0  0  0  0  0999 V2000
    8.9640   -2.7170    1.8260 C   0  0  0  0  0  0  0  0  0  0  0  0
    8.5250   -1.4470    1.9340 C   0  0  0  0  0  2  0  0  0  0  0  0
    9.2580   -0.2750    1.4530 C   0  0  0  0  0  0  0  0  0  0  0  0
    9.7110   -0.2220    0.1310 C   0  0  0  0  0  3  0  0  0  0  0  0
   10.3330    0.9320   -0.3490 C   0  0  0  0  0  3  0  0  0  0  0  0
   10.4850    2.0380    0.4880 C   0  0  0  0  0  0  0  0  0  0  0  0
   10.0730    1.9780    1.8220 C   0  0  0  0  0  3  0  0  0  0  0  0
    9.4540    0.8240    2.2990 C   0  0  0  0  0  3  0  0  0  0  0  0
   11.0860    3.1560   -0.0440 O   0  0  0  0  0  0  0  0  0  0  0  0
   10.7580    4.3660    0.5310 C   0  0  0  0  0  0  0  0  0  0  0  0
    9.7180    5.1530    0.0200 C   0  0  0  0  0  3  0  0  0  0  0  0
    9.4220    6.3870    0.6000 C   0  0  0  0  0  3  0  0  0  0  0  0
   10.1740    6.8500    1.6790 C   0  0  0  0  0  3  0  0  0  0  0  0
   11.2290    6.0820    2.1760 C   0  0  0  0  0  3  0  0  0  0  0  0
   11.5260    4.8440    1.5990 C   0  0  0  0  0  0  0  0  0  0  0  0
   12.9710    3.8420    2.3100 Br  0  0  0  0  0  0  0  0  0  0  0  0
    9.6960   -3.9040   -0.7860 O   0  0  0  0  0  0  0  0  0  0  0  0
   10.4860   -3.6400    0.1110 C   0  0  0  0  0  0  0  0  0  0  0  0
   10.2180   -3.0040    1.3070 N   0  0  0  0  0  4  0  0  0  0  0  0
   11.0020   -2.6810    1.8530 H   0  0  0  0  0  0  0  0  0  0  0  0
   11.9690   -3.9350   -0.0560 C   0  0  0  0  0  2  0  0  0  0  0  0
   12.5900   -3.1770   -1.2410 C   0  0  0  0  0  3  0  0  0  0  0  0
   11.7530   -1.9520   -1.6500 C   0  0  0  0  0  2  0  0  0  0  0  0
   12.4200   -1.1380   -2.7570 C   0  0  0  0  0  2  0  0  0  0  0  0
   13.8400   -0.7330   -2.3860 C   0  0  0  0  0  2  0  0  0  0  0  0
   14.6810   -1.9450   -2.0020 C   0  0  0  0  0  2  0  0  0  0  0  0
   14.0240   -2.7490   -0.8840 C   0  0  0  0  0  2  0  0  0  0  0  0
    7.9820   -3.7860    2.4110 C   0  0  0  0  0  0  0  0  0  0  0  0
    7.8170   -4.8030    1.6710 O   0  0  0  0  0  0  0  0  0  0  0  0
    7.6090   -3.5740    3.6030 O   0  0  0  0  0  1  0  0  0  0  0  0
  1  2  1  0  0  0  0
  1 28  1  0  0  0  0
  3  2  1  0  0  0  0
  3  8  1  0  0  0  0
  4  3  2  0  0  0  0
  5  4  1  0  0  0  0
  5  6  2  0  0  0  0
  6  7  1  0  0  0  0
  7  8  2  0  0  0  0
  9  6  1  0  0  0  0
  9 10  1  0  0  0  0
 10 15  1  0  0  0  0
 11 10  2  0  0  0  0
 11 12  1  0  0  0  0
 12 13  2  0  0  0  0
 13 14  1  0  0  0  0
 15 14  2  0  0  0  0
 15 16  1  0  0  0  0
 17 18  2  0  0  0  0
 18 19  1  0  0  0  0
 19  1  2  0  0  0  0
 19 20  1  0  0  0  0
 21 18  1  0  0  0  0
 22 27  1  0  0  0  0
 22 21  1  0  0  0  0
 23 22  1  0  0  0  0
 24 25  1  0  0  0  0
 24 23  1  0  0  0  0
 25 26  1  0  0  0  0
 26 27  1  0  0  0  0
 28 30  1  0  0  0  0
 29 28  2  0  0  0  0
M  END
>  <minimizedAffinity>
-6.98924065

$$$$

 OpenBabel09132200173D

 30 32  0  0  0  0  0  0  0  0999 V2000
    8.9950   -3.4860    1.1430 C   0  0  0  0  0  0  0  0  0  0  0  0
    8.3650   -2.5470    1.8770 C   0  0  0  0  0  2  0  0  0  0  0  0
    8.9380   -1.2450    2.2220 C   0  0  0  0  0  0  0  0  0  0  0  0
    8.9550   -0.2120    1.2800 C   0  0  0  0  0  3  0  0  0  0  0  0
    9.4220    1.0540    1.6390 C   0  0  0  0  0  3  0  0  0  0  0  0
    9.8540    1.2890    2.9450 C   0  0  0  0  0  0  0  0  0  0  0  0
    9.8800    0.2520    3.8800 C   0  0  0  0  0  3  0  0  0  0  0  0
    9.4150   -1.0120    3.5180 C   0  0  0  0  0  3  0  0  0  0  0  0
   10.2840    2.5610    3.2490 O   0  0  0  0  0  0  0  0  0  0  0  0
   11.5440    2.6710    3.8010 C   0  0  0  0  0  0  0  0  0  0  0  0
   11.7620    2.4180    5.1620 C   0  0  0  0  0  3  0  0  0  0  0  0
   13.0390    2.5640    5.7060 C   0  0  0  0  0  3  0  0  0  0  0  0
   14.0990    2.9790    4.9000 C   0  0  0  0  0  3  0  0  0  0  0  0
   13.8810    3.2570    3.5480 C   0  0  0  0  0  3  0  0  0  0  0  0
   12.6040    3.1100    3.0000 C   0  0  0  0  0  0  0  0  0  0  0  0
   12.3620    3.5040    1.1610 Br  0  0  0  0  0  0  0  0  0  0  0  0
   10.2120   -4.0540   -1.4950 O   0  0  0  0  0  0  0  0  0  0  0  0
   10.8270   -3.6770   -0.5050 C   0  0  0  0  0  0  0  0  0  0  0  0
   10.3040   -3.3090    0.7190 N   0  0  0  0  0  4  0  0  0  0  0  0
   10.9140   -2.8360    1.3670 H   0  0  0  0  0  0  0  0  0  0  0  0
   12.3350   -3.4840   -0.5610 C   0  0  0  0  0  2  0  0  0  0  0  0
   12.7560   -2.4400   -1.6090 C   0  0  0  0  0  3  0  0  0  0  0  0
   11.8360   -1.2070   -1.6030 C   0  0  0  0  0  2  0  0  0  0  0  0
   12.3130   -0.1250   -2.5700 C   0  0  0  0  0  2  0  0  0  0  0  0
   13.7610    0.2690   -2.3120 C   0  0  0  0  0  2  0  0  0  0  0  0
   14.6800   -0.9470   -2.3390 C   0  0  0  0  0  2  0  0  0  0  0  0
   14.2150   -2.0210   -1.3610 C   0  0  0  0  0  2  0  0  0  0  0  0
    8.1550   -4.7860    0.9080 C   0  0  0  0  0  0  0  0  0  0  0  0
    7.8070   -5.3810    1.9730 O   0  0  0  0  0  1  0  0  0  0  0  0
    7.8010   -4.9840   -0.2920 O   0  0  0  0  0  0  0  0  0  0  0  0
  1  2  1  0  0  0  0
  2  3  1  0  0  0  0
  3  8  1  0  0  0  0
  4  5  1  0  0  0  0
  4  3  2  0  0  0  0
  5  6  2  0  0  0  0
  6  9  1  0  0  0  0
  6  7  1  0  0  0  0
  8  7  2  0  0  0  0
  9 10  1  0  0  0  0
 10 11  1  0  0  0  0
 11 12  2  0  0  0  0
 13 12  1  0  0  0  0
 14 13  2  0  0  0  0
 15 14  1  0  0  0  0
 15 10  2  0  0  0  0
 16 15  1  0  0  0  0
 17 18  2  0  0  0  0
 18 19  1  0  0  0  0
 19  1  2  0  0  0  0
 19 20  1  0  0  0  0
 21 18  1  0  0  0  0
 22 23  1  0  0  0  0
 22 27  1  0  0  0  0
 22 21  1  0  0  0  0
 24 25  1  0  0  0  0
 24 23  1  0  0  0  0
 26 25  1  0  0  0  0
 26 27  1  0  0  0  0
 28  1  1  0  0  0  0
 28 29  1  0  0  0  0
 30 28  2  0  0  0  0
M  END
>  <minimizedAffinity>
-6.72683811

$$$$

 OpenBabel09132200173D

 30 32  0  0  0  0  0  0  0  0999 V2000
    8.0850   -2.5590    4.8540 C   0  0  0  0  0  0  0  0  0  0  0  0
    7.7520   -3.2230    3.7290 C   0  0  0  0  0  2  0  0  0  0  0  0
    8.4640   -3.1040    2.4560 C   0  0  0  0  0  0  0  0  0  0  0  0
    8.4850   -4.1760    1.5590 C   0  0  0  0  0  3  0  0  0  0  0  0
    9.0900   -4.0300    0.3090 C   0  0  0  0  0  3  0  0  0  0  0  0
    9.6560   -2.8060   -0.0490 C   0  0  0  0  0  0  0  0  0  0  0  0
    9.6760   -1.7430    0.8580 C   0  0  0  0  0  3  0  0  0  0  0  0
    9.0730   -1.8920    2.1060 C   0  0  0  0  0  3  0  0  0  0  0  0
   10.2200   -2.7120   -1.3010 O   0  0  0  0  0  0  0  0  0  0  0  0
   11.5880   -2.5380   -1.3500 C   0  0  0  0  0  0  0  0  0  0  0  0
   12.4530   -3.4050   -0.6700 C   0  0  0  0  0  3  0  0  0  0  0  0
   13.8320   -3.1930   -0.7090 C   0  0  0  0  0  3  0  0  0  0  0  0
   14.3520   -2.1060   -1.4120 C   0  0  0  0  0  3  0  0  0  0  0  0
   13.4920   -1.2240   -2.0700 C   0  0  0  0  0  3  0  0  0  0  0  0
   12.1110   -1.4350   -2.0330 C   0  0  0  0  0  0  0  0  0  0  0  0
   10.9880   -0.2050   -2.9410 Br  0  0  0  0  0  0  0  0  0  0  0  0
   10.5010   -2.4260    6.5600 O   0  0  0  0  0  0  0  0  0  0  0  0
   10.1690   -1.5740    5.7450 C   0  0  0  0  0  0  0  0  0  0  0  0
    9.1110   -1.6250    4.8610 N   0  0  0  0  0  4  0  0  0  0  0  0
    9.0840   -0.9400    4.1210 H   0  0  0  0  0  0  0  0  0  0  0  0
   11.0070   -0.3180    5.5580 C   0  0  0  0  0  2  0  0  0  0  0  0
   10.1640    0.9670    5.6220 C   0  0  0  0  0  3  0  0  0  0  0  0
   10.1020    1.5500    7.0440 C   0  0  0  0  0  2  0  0  0  0  0  0
    9.3520    2.8810    7.0920 C   0  0  0  0  0  2  0  0  0  0  0  0
    9.9280    3.8910    6.1090 C   0  0  0  0  0  2  0  0  0  0  0  0
    9.9710    3.3260    4.6940 C   0  0  0  0  0  2  0  0  0  0  0  0
   10.7350    2.0060    4.6420 C   0  0  0  0  0  2  0  0  0  0  0  0
    7.1670   -2.8760    6.0810 C   0  0  0  0  0  0  0  0  0  0  0  0
    6.8850   -4.1040    6.2180 O   0  0  0  0  0  0  0  0  0  0  0  0
    6.9600   -1.8980    6.8600 O   0  0  0  0  0  1  0  0  0  0  0  0
  1 19  2  0  0  0  0
  1 28  1  0  0  0  0
  2  1  1  0  0  0  0
  3  2  1  0  0  0  0
  4  3  2  0  0  0  0
  5  4  1  0  0  0  0
  6  5  2  0  0  0  0
  6  7  1  0  0  0  0
  7  8  2  0  0  0  0
  8  3  1  0  0  0  0
  9  6  1  0  0  0  0
 10  9  1  0  0  0  0
 10 11  1  0  0  0  0
 12 11  2  0  0  0  0
 13 12  1  0  0  0  0
 14 15  1  0  0  0  0
 14 13  2  0  0  0  0
 15 10  2  0  0  0  0
 16 15  1  0  0  0  0
 18 17  2  0  0  0  0
 19 18  1  0  0  0  0
 20 19  1  0  0  0  0
 21 22  1  0  0  0  0
 21 18  1  0  0  0  0
 22 23  1  0  0  0  0
 23 24  1  0  0  0  0
 25 24  1  0  0  0  0
 26 25  1  0  0  0  0
 27 26  1  0  0  0  0
 27 22  1  0  0  0  0
 28 29  2  0  0  0  0
 28 30  1  0  0  0  0
M  END
>  <minimizedAffinity>
-6.51645565

$$$$

 OpenBabel09132200173D

 30 32  0  0  0  0  0  0  0  0999 V2000
   10.3660    2.7550    3.8710 C   0  0  0  0  0  0  0  0  0  0  0  0
   10.7550    3.6100    2.9030 C   0  0  0  0  0  2  0  0  0  0  0  0
   11.1740    3.2050    1.5610 C   0  0  0  0  0  0  0  0  0  0  0  0
   12.5300    3.2070    1.2180 C   0  0  0  0  0  3  0  0  0  0  0  0
   12.9340    2.7380   -0.0340 C   0  0  0  0  0  3  0  0  0  0  0  0
   11.9840    2.2500   -0.9320 C   0  0  0  0  0  0  0  0  0  0  0  0
   10.6250    2.2840   -0.6120 C   0  0  0  0  0  3  0  0  0  0  0  0
   10.2230    2.7550    0.6370 C   0  0  0  0  0  3  0  0  0  0  0  0
   12.4410    1.7810   -2.1430 O   0  0  0  0  0  0  0  0  0  0  0  0
   12.8890    0.4760   -2.1690 C   0  0  0  0  0  0  0  0  0  0  0  0
   14.2370    0.1690   -1.9420 C   0  0  0  0  0  3  0  0  0  0  0  0
   14.6740   -1.1550   -2.0030 C   0  0  0  0  0  3  0  0  0  0  0  0
   13.7730   -2.1750   -2.3070 C   0  0  0  0  0  3  0  0  0  0  0  0
   12.4340   -1.8710   -2.5600 C   0  0  0  0  0  3  0  0  0  0  0  0
   11.9930   -0.5460   -2.4990 C   0  0  0  0  0  0  0  0  0  0  0  0
   10.1650   -0.1880   -2.8540 Br  0  0  0  0  0  0  0  0  0  0  0  0
    8.5480    1.0030    2.3240 O   0  0  0  0  0  0  0  0  0  0  0  0
    9.4810    0.6120    3.0140 C   0  0  0  0  0  0  0  0  0  0  0  0
   10.4140    1.3820    3.6790 N   0  0  0  0  0  4  0  0  0  0  0  0
   11.2340    0.9180    4.0400 H   0  0  0  0  0  0  0  0  0  0  0  0
    9.7730   -0.8750    3.1450 C   0  0  0  0  0  2  0  0  0  0  0  0
    9.1440   -1.7000    2.0100 C   0  0  0  0  0  3  0  0  0  0  0  0
   10.0980   -1.8640    0.8140 C   0  0  0  0  0  2  0  0  0  0  0  0
    9.5170   -2.7690   -0.2710 C   0  0  0  0  0  2  0  0  0  0  0  0
    9.0970   -4.1230    0.2850 C   0  0  0  0  0  2  0  0  0  0  0  0
    8.1340   -3.9670    1.4560 C   0  0  0  0  0  2  0  0  0  0  0  0
    8.7200   -3.0780    2.5480 C   0  0  0  0  0  2  0  0  0  0  0  0
    9.9560    3.4490    5.2130 C   0  0  0  0  0  0  0  0  0  0  0  0
   10.8910    4.0990    5.7700 O   0  0  0  0  0  1  0  0  0  0  0  0
    8.7190    3.4040    5.4810 O   0  0  0  0  0  0  0  0  0  0  0  0
  1 28  1  0  0  0  0
  2  1  1  0  0  0  0
  3  2  1  0  0  0  0
  4  3  1  0  0  0  0
  5  4  2  0  0  0  0
  6  7  2  0  0  0  0
  6  5  1  0  0  0  0
  7  8  1  0  0  0  0
  8  3  2  0  0  0  0
  9  6  1  0  0  0  0
 10  9  1  0  0  0  0
 10 11  1  0  0  0  0
 12 11  2  0  0  0  0
 13 12  1  0  0  0  0
 14 15  1  0  0  0  0
 14 13  2  0  0  0  0
 15 10  2  0  0  0  0
 16 15  1  0  0  0  0
 17 18  2  0  0  0  0
 18 21  1  0  0  0  0
 18 19  1  0  0  0  0
 19  1  2  0  0  0  0
 19 20  1  0  0  0  0
 22 27  1  0  0  0  0
 22 21  1  0  0  0  0
 23 22  1  0  0  0  0
 24 25  1  0  0  0  0
 24 23  1  0  0  0  0
 25 26  1  0  0  0  0
 26 27  1  0  0  0  0
 28 30  2  0  0  0  0
 28 29  1  0  0  0  0
M  END
>  <minimizedAffinity>
-6.47529984

$$$$

 OpenBabel09132200173D

 30 32  0  0  0  0  0  0  0  0999 V2000
   10.2100    3.0190    4.2770 C   0  0  0  0  0  0  0  0  0  0  0  0
   10.1800    3.2620    2.9510 C   0  0  0  0  0  2  0  0  0  0  0  0
   10.1840    2.2250    1.9190 C   0  0  0  0  0  0  0  0  0  0  0  0
    9.5230    1.0120    2.1400 C   0  0  0  0  0  3  0  0  0  0  0  0
    9.4540    0.0580    1.1220 C   0  0  0  0  0  3  0  0  0  0  0  0
   10.0290    0.3280   -0.1210 C   0  0  0  0  0  0  0  0  0  0  0  0
   10.7260    1.5190   -0.3350 C   0  0  0  0  0  3  0  0  0  0  0  0
   10.7960    2.4680    0.6830 C   0  0  0  0  0  3  0  0  0  0  0  0
    9.9120   -0.6390   -1.0930 O   0  0  0  0  0  0  0  0  0  0  0  0
   11.0520   -1.3560   -1.3910 C   0  0  0  0  0  0  0  0  0  0  0  0
   12.0850   -0.7900   -2.1500 C   0  0  0  0  0  3  0  0  0  0  0  0
   13.2180   -1.5430   -2.4640 C   0  0  0  0  0  3  0  0  0  0  0  0
   13.3160   -2.8680   -2.0390 C   0  0  0  0  0  3  0  0  0  0  0  0
   12.2770   -3.4440   -1.3040 C   0  0  0  0  0  3  0  0  0  0  0  0
   11.1430   -2.6920   -0.9870 C   0  0  0  0  0  0  0  0  0  0  0  0
    9.7610   -3.5240    0.0100 Br  0  0  0  0  0  0  0  0  0  0  0  0
   11.9940    1.9690    6.3940 O   0  0  0  0  0  0  0  0  0  0  0  0
   11.2490    1.2870    5.7010 C   0  0  0  0  0  0  0  0  0  0  0  0
   10.3310    1.7280    4.7690 N   0  0  0  0  0  4  0  0  0  0  0  0
    9.6550    1.0630    4.4250 H   0  0  0  0  0  0  0  0  0  0  0  0
   11.2000   -0.2230    5.8780 C   0  0  0  0  0  2  0  0  0  0  0  0
    9.8160   -0.8100    5.5510 C   0  0  0  0  0  3  0  0  0  0  0  0
    9.9130   -2.0730    4.6780 C   0  0  0  0  0  2  0  0  0  0  0  0
    8.5480   -2.7170    4.4380 C   0  0  0  0  0  2  0  0  0  0  0  0
    7.8210   -3.0070    5.7440 C   0  0  0  0  0  2  0  0  0  0  0  0
    7.7030   -1.7530    6.6040 C   0  0  0  0  0  2  0  0  0  0  0  0
    9.0670   -1.1190    6.8590 C   0  0  0  0  0  2  0  0  0  0  0  0
   10.1870    4.3080    5.1660 C   0  0  0  0  0  0  0  0  0  0  0  0
   10.9310    5.2440    4.7450 O   0  0  0  0  0  0  0  0  0  0  0  0
    9.3180    4.3050    6.0870 O   0  0  0  0  0  1  0  0  0  0  0  0
  1 19  2  0  0  0  0
  1 28  1  0  0  0  0
  2  1  1  0  0  0  0
  3  4  1  0  0  0  0
  3  2  1  0  0  0  0
  5  4  2  0  0  0  0
  6  5  1  0  0  0  0
  7  6  2  0  0  0  0
  7  8  1  0  0  0  0
  8  3  2  0  0  0  0
  9  6  1  0  0  0  0
 10  9  1  0  0  0  0
 10 15  1  0  0  0  0
 11 10  2  0  0  0  0
 12 11  1  0  0  0  0
 12 13  2  0  0  0  0
 13 14  1  0  0  0  0
 14 15  2  0  0  0  0
 15 16  1  0  0  0  0
 18 21  1  0  0  0  0
 18 17  2  0  0  0  0
 19 18  1  0  0  0  0
 20 19  1  0  0  0  0
 22 21  1  0  0  0  0
 22 27  1  0  0  0  0
 23 22  1  0  0  0  0
 24 23  1  0  0  0  0
 24 25  1  0  0  0  0
 25 26  1  0  0  0  0
 26 27  1  0  0  0  0
 28 30  1  0  0  0  0
 29 28  2  0  0  0  0
M  END
>  <minimizedAffinity>
-6.46697283

$$$$

 OpenBabel09132200173D

 30 32  0  0  0  0  0  0  0  0999 V2000
    9.4460    8.4980    0.4400 C   0  0  0  0  0  0  0  0  0  0  0  0
    9.5560    7.5110   -0.4710 C   0  0  0  0  0  2  0  0  0  0  0  0
   10.0650    6.1700   -0.1810 C   0  0  0  0  0  0  0  0  0  0  0  0
    9.1800    5.0950   -0.0500 C   0  0  0  0  0  3  0  0  0  0  0  0
    9.6730    3.8020    0.1410 C   0  0  0  0  0  3  0  0  0  0  0  0
   11.0510    3.5850    0.1800 C   0  0  0  0  0  0  0  0  0  0  0  0
   11.9400    4.6590    0.0920 C   0  0  0  0  0  3  0  0  0  0  0  0
   11.4450    5.9480   -0.0950 C   0  0  0  0  0  3  0  0  0  0  0  0
   11.4810    2.2890    0.3490 O   0  0  0  0  0  0  0  0  0  0  0  0
   11.3890    1.4600   -0.7500 C   0  0  0  0  0  0  0  0  0  0  0  0
   12.0760    1.7510   -1.9360 C   0  0  0  0  0  3  0  0  0  0  0  0
   11.9460    0.9150   -3.0460 C   0  0  0  0  0  3  0  0  0  0  0  0
   11.1160   -0.2040   -2.9830 C   0  0  0  0  0  3  0  0  0  0  0  0
   10.4080   -0.4840   -1.8120 C   0  0  0  0  0  3  0  0  0  0  0  0
   10.5390    0.3500   -0.6990 C   0  0  0  0  0  0  0  0  0  0  0  0
    9.5530   -0.0740    0.8650 Br  0  0  0  0  0  0  0  0  0  0  0  0
   11.9000    9.5380    1.7300 O   0  0  0  0  0  0  0  0  0  0  0  0
   11.1010    8.7720    2.2560 C   0  0  0  0  0  0  0  0  0  0  0  0
    9.8990    8.3300    1.7410 N   0  0  0  0  0  4  0  0  0  0  0  0
    9.2620    7.8640    2.3690 H   0  0  0  0  0  0  0  0  0  0  0  0
   11.3370    8.2640    3.6690 C   0  0  0  0  0  2  0  0  0  0  0  0
   11.9120    6.8370    3.6940 C   0  0  0  0  0  3  0  0  0  0  0  0
   12.8610    6.6140    4.8840 C   0  0  0  0  0  2  0  0  0  0  0  0
   13.3530    5.1700    4.9700 C   0  0  0  0  0  2  0  0  0  0  0  0
   12.1970    4.1790    4.9960 C   0  0  0  0  0  2  0  0  0  0  0  0
   11.2650    4.3810    3.8070 C   0  0  0  0  0  2  0  0  0  0  0  0
   10.7600    5.8180    3.7300 C   0  0  0  0  0  2  0  0  0  0  0  0
    8.8610    9.8340   -0.1280 C   0  0  0  0  0  0  0  0  0  0  0  0
    9.4020   10.2230   -1.2070 O   0  0  0  0  0  0  0  0  0  0  0  0
    7.8270   10.2610    0.4680 O   0  0  0  0  0  1  0  0  0  0  0  0
  1 19  2  0  0  0  0
  2  3  1  0  0  0  0
  2  1  1  0  0  0  0
  3  8  2  0  0  0  0
  3  4  1  0  0  0  0
  4  5  2  0  0  0  0
  5  6  1  0  0  0  0
  6  9  1  0  0  0  0
  7  6  2  0  0  0  0
  8  7  1  0  0  0  0
 10 15  1  0  0  0  0
 10  9  1  0  0  0  0
 11 10  2  0  0  0  0
 12 13  2  0  0  0  0
 12 11  1  0  0  0  0
 13 14  1  0  0  0  0
 14 15  2  0  0  0  0
 15 16  1  0  0  0  0
 17 18  2  0  0  0  0
 18 21  1  0  0  0  0
 19 18  1  0  0  0  0
 19 20  1  0  0  0  0
 21 22  1  0  0  0  0
 22 27  1  0  0  0  0
 22 23  1  0  0  0  0
 23 24  1  0  0  0  0
 24 25  1  0  0  0  0
 26 25  1  0  0  0  0
 27 26  1  0  0  0  0
 28  1  1  0  0  0  0
 28 30  1  0  0  0  0
 29 28  2  0  0  0  0
M  END
>  <minimizedAffinity>
-6.3789463

$$$$
