
 OpenBabel09132204463D

 30 32  0  0  0  0  0  0  0  0999 V2000
    8.9640   -2.7170    1.8260 C   0  0  0  0  0  0  0  0  0  0  0  0
    8.5250   -1.4470    1.9340 C   0  0  0  0  0  2  0  0  0  0  0  0
    9.2580   -0.2750    1.4530 C   0  0  0  0  0  0  0  0  0  0  0  0
    9.7110   -0.2220    0.1310 C   0  0  0  0  0  3  0  0  0  0  0  0
   10.3330    0.9320   -0.3490 C   0  0  0  0  0  3  0  0  0  0  0  0
   10.4850    2.0380    0.4880 C   0  0  0  0  0  0  0  0  0  0  0  0
   10.0730    1.9780    1.8220 C   0  0  0  0  0  3  0  0  0  0  0  0
    9.4540    0.8240    2.2990 C   0  0  0  0  0  3  0  0  0  0  0  0
   11.0860    3.1560   -0.0440 O   0  0  0  0  0  0  0  0  0  0  0  0
   10.7580    4.3660    0.5310 C   0  0  0  0  0  0  0  0  0  0  0  0
    9.7180    5.1530    0.0200 C   0  0  0  0  0  3  0  0  0  0  0  0
    9.4220    6.3870    0.6000 C   0  0  0  0  0  3  0  0  0  0  0  0
   10.1740    6.8500    1.6790 C   0  0  0  0  0  3  0  0  0  0  0  0
   11.2290    6.0820    2.1760 C   0  0  0  0  0  3  0  0  0  0  0  0
   11.5260    4.8440    1.5990 C   0  0  0  0  0  0  0  0  0  0  0  0
   12.9710    3.8420    2.3100 Br  0  0  0  0  0  0  0  0  0  0  0  0
    9.6960   -3.9040   -0.7860 O   0  0  0  0  0  0  0  0  0  0  0  0
   10.4860   -3.6400    0.1110 C   0  0  0  0  0  0  0  0  0  0  0  0
   10.2180   -3.0040    1.3070 N   0  0  0  0  0  4  0  0  0  0  0  0
   11.0020   -2.6810    1.8530 H   0  0  0  0  0  0  0  0  0  0  0  0
   11.9690   -3.9350   -0.0560 C   0  0  0  0  0  2  0  0  0  0  0  0
   12.5900   -3.1770   -1.2410 C   0  0  0  0  0  3  0  0  0  0  0  0
   11.7530   -1.9520   -1.6500 C   0  0  0  0  0  2  0  0  0  0  0  0
   12.4200   -1.1380   -2.7570 C   0  0  0  0  0  2  0  0  0  0  0  0
   13.8400   -0.7330   -2.3860 C   0  0  0  0  0  2  0  0  0  0  0  0
   14.6810   -1.9450   -2.0020 C   0  0  0  0  0  2  0  0  0  0  0  0
   14.0240   -2.7490   -0.8840 C   0  0  0  0  0  2  0  0  0  0  0  0
    7.9820   -3.7860    2.4110 C   0  0  0  0  0  0  0  0  0  0  0  0
    7.8170   -4.8030    1.6710 O   0  0  0  0  0  0  0  0  0  0  0  0
    7.6090   -3.5740    3.6030 O   0  0  0  0  0  1  0  0  0  0  0  0
  1  2  1  0  0  0  0
  1 28  1  0  0  0  0
  3  2  1  0  0  0  0
  3  8  1  0  0  0  0
  4  3  2  0  0  0  0
  5  4  1  0  0  0  0
  5  6  2  0  0  0  0
  6  7  1  0  0  0  0
  7  8  2  0  0  0  0
  9  6  1  0  0  0  0
  9 10  1  0  0  0  0
 10 15  1  0  0  0  0
 11 10  2  0  0  0  0
 11 12  1  0  0  0  0
 12 13  2  0  0  0  0
 13 14  1  0  0  0  0
 15 14  2  0  0  0  0
 15 16  1  0  0  0  0
 17 18  2  0  0  0  0
 18 19  1  0  0  0  0
 19  1  2  0  0  0  0
 19 20  1  0  0  0  0
 21 18  1  0  0  0  0
 22 27  1  0  0  0  0
 22 21  1  0  0  0  0
 23 22  1  0  0  0  0
 24 25  1  0  0  0  0
 24 23  1  0  0  0  0
 25 26  1  0  0  0  0
 26 27  1  0  0  0  0
 28 30  1  0  0  0  0
 29 28  2  0  0  0  0
M  END
>  <minimizedAffinity>
-6.98924065

$$$$
