
 OpenBabel09132204463D

 24 27  0  0  0  0  0  0  0  0999 V2000
    9.8940    6.6790    0.2720 C   0  0  0  0  0  0  0  0  0  0  0  0
   10.5080    6.7370    1.5920 C   0  0  0  0  0  3  0  0  0  0  0  0
   10.7390    5.6280    2.3200 C   0  0  0  0  0  3  0  0  0  0  0  0
   10.3800    4.3430    1.8040 C   0  0  0  0  0  0  0  0  0  0  0  0
   10.4780    3.0360    2.2690 C   0  0  0  0  0  0  0  0  0  0  0  0
    9.9110    2.2050    1.2430 C   0  0  0  0  0  0  0  0  0  0  0  0
    9.5130    3.0250    0.2080 C   0  0  0  0  0  3  0  0  0  0  0  0
    9.7930    4.3280    0.5420 N   0  0  0  0  0  0  0  0  0  0  0  0
    9.5530    5.4720   -0.2140 C   0  0  0  0  0  3  0  0  0  0  0  0
   11.0680    2.5510    3.5730 C   0  0  0  0  0  3  0  0  0  0  0  0
   12.4710    3.1240    3.8360 C   0  0  0  0  0  2  0  0  0  0  0  0
   13.0560    2.5930    5.1440 C   0  0  0  0  0  2  0  0  0  0  0  0
   12.1190    2.8440    6.3230 C   0  0  0  0  0  2  0  0  0  0  0  0
   10.7300    2.2670    6.0690 C   0  0  0  0  0  2  0  0  0  0  0  0
   10.1290    2.7940    4.7670 C   0  0  0  0  0  2  0  0  0  0  0  0
    9.7280    0.7660    1.1940 C   0  0  0  0  0  0  0  0  0  0  0  0
   10.1340    0.0430    0.0670 C   0  0  0  0  0  3  0  0  0  0  0  0
    9.9550   -1.3420    0.0170 C   0  0  0  0  0  3  0  0  0  0  0  0
    9.3720   -2.0080    1.0940 C   0  0  0  0  0  3  0  0  0  0  0  0
    8.9680   -1.2950    2.2220 C   0  0  0  0  0  3  0  0  0  0  0  0
    9.1470    0.0890    2.2730 C   0  0  0  0  0  3  0  0  0  0  0  0
    8.4810    8.4580   -0.4610 O   0  0  0  0  0  1  0  0  0  0  0  0
    9.6530    7.9830   -0.5230 C   0  0  0  0  0  0  0  0  0  0  0  0
   10.6580    8.4320   -1.1500 O   0  0  0  0  0  0  0  0  0  0  0  0
  1  2  1  0  0  0  0
  2  3  2  0  0  0  0
  4  5  2  0  0  0  0
  4  3  1  0  0  0  0
  5 10  1  0  0  0  0
  6  5  1  0  0  0  0
  7  8  1  0  0  0  0
  7  6  2  0  0  0  0
  8  4  1  0  0  0  0
  9  1  2  0  0  0  0
  9  8  1  0  0  0  0
 10 11  1  0  0  0  0
 10 15  1  0  0  0  0
 11 12  1  0  0  0  0
 12 13  1  0  0  0  0
 14 13  1  0  0  0  0
 15 14  1  0  0  0  0
 16  6  1  0  0  0  0
 16 21  1  0  0  0  0
 17 16  2  0  0  0  0
 18 17  1  0  0  0  0
 18 19  2  0  0  0  0
 19 20  1  0  0  0  0
 20 21  2  0  0  0  0
 23 22  1  0  0  0  0
 23  1  1  0  0  0  0
 24 23  2  0  0  0  0
M  END
>  <minimizedAffinity>
-6.00404787

$$$$
