
 OpenBabel09132204463D

 24 27  0  0  0  0  0  0  0  0999 V2000
    9.2510   -2.9590    9.1450 C   0  0  0  0  0  0  0  0  0  0  0  0
    8.5320   -3.4960   10.2920 C   0  0  0  0  0  3  0  0  0  0  0  0
    7.1880   -3.5890   10.3100 C   0  0  0  0  0  3  0  0  0  0  0  0
    6.4230   -3.1530    9.1830 C   0  0  0  0  0  0  0  0  0  0  0  0
    5.0680   -3.1120    8.8720 C   0  0  0  0  0  0  0  0  0  0  0  0
    4.9770   -2.5390    7.5580 C   0  0  0  0  0  0  0  0  0  0  0  0
    6.2600   -2.2740    7.1240 C   0  0  0  0  0  3  0  0  0  0  0  0
    7.1460   -2.6430    8.1080 N   0  0  0  0  0  0  0  0  0  0  0  0
    8.5340   -2.5460    8.0850 C   0  0  0  0  0  3  0  0  0  0  0  0
    3.9030   -3.5800    9.7140 C   0  0  0  0  0  3  0  0  0  0  0  0
    3.1820   -2.4210   10.4220 C   0  0  0  0  0  2  0  0  0  0  0  0
    2.0310   -2.9240   11.2910 C   0  0  0  0  0  2  0  0  0  0  0  0
    1.0560   -3.7840   10.4900 C   0  0  0  0  0  2  0  0  0  0  0  0
    1.7660   -4.9420    9.7960 C   0  0  0  0  0  2  0  0  0  0  0  0
    2.9180   -4.4520    8.9180 C   0  0  0  0  0  2  0  0  0  0  0  0
    3.8150   -2.2380    6.7420 C   0  0  0  0  0  0  0  0  0  0  0  0
    2.9420   -1.2090    7.1140 C   0  0  0  0  0  3  0  0  0  0  0  0
    1.8220   -0.9200    6.3320 C   0  0  0  0  0  3  0  0  0  0  0  0
    1.5710   -1.6560    5.1750 C   0  0  0  0  0  3  0  0  0  0  0  0
    2.4380   -2.6800    4.7960 C   0  0  0  0  0  3  0  0  0  0  0  0
    3.5590   -2.9700    5.5770 C   0  0  0  0  0  3  0  0  0  0  0  0
   11.4030   -3.9810    9.2960 O   0  0  0  0  0  1  0  0  0  0  0  0
   10.7950   -2.8770    9.1740 C   0  0  0  0  0  0  0  0  0  0  0  0
   11.2810   -1.7120    9.0740 O   0  0  0  0  0  0  0  0  0  0  0  0
  1 23  1  0  0  0  0
  1  2  1  0  0  0  0
  2  3  2  0  0  0  0
  4  3  1  0  0  0  0
  5  4  2  0  0  0  0
  5 10  1  0  0  0  0
  6  5  1  0  0  0  0
  7  6  2  0  0  0  0
  7  8  1  0  0  0  0
  8  4  1  0  0  0  0
  9  8  1  0  0  0  0
  9  1  2  0  0  0  0
 10 11  1  0  0  0  0
 11 12  1  0  0  0  0
 13 12  1  0  0  0  0
 14 13  1  0  0  0  0
 15 10  1  0  0  0  0
 15 14  1  0  0  0  0
 16 17  1  0  0  0  0
 16  6  1  0  0  0  0
 18 17  2  0  0  0  0
 19 18  1  0  0  0  0
 20 19  2  0  0  0  0
 20 21  1  0  0  0  0
 21 16  2  0  0  0  0
 23 22  1  0  0  0  0
 24 23  2  0  0  0  0
M  END
>  <minimizedAffinity>
-5.9132123

$$$$
