
 OpenBabel09132204463D

 24 27  0  0  0  0  0  0  0  0999 V2000
    8.9300   -4.5140   10.3700 C   0  0  0  0  0  0  0  0  0  0  0  0
    8.0400   -4.9500   11.4360 C   0  0  0  0  0  3  0  0  0  0  0  0
    6.7060   -4.7780   11.3660 C   0  0  0  0  0  3  0  0  0  0  0  0
    6.1230   -4.1490   10.2210 C   0  0  0  0  0  0  0  0  0  0  0  0
    4.8270   -3.8280    9.8290 C   0  0  0  0  0  0  0  0  0  0  0  0
    4.9450   -3.1890    8.5480 C   0  0  0  0  0  0  0  0  0  0  0  0
    6.2820   -3.1620    8.2110 C   0  0  0  0  0  3  0  0  0  0  0  0
    7.0060   -3.7420    9.2240 N   0  0  0  0  0  0  0  0  0  0  0  0
    8.3850   -3.9200    9.2940 C   0  0  0  0  0  3  0  0  0  0  0  0
    3.5360   -4.0950   10.5680 C   0  0  0  0  0  3  0  0  0  0  0  0
    2.9980   -2.8470   11.2880 C   0  0  0  0  0  2  0  0  0  0  0  0
    1.7110   -3.1530   12.0520 C   0  0  0  0  0  2  0  0  0  0  0  0
    0.6530   -3.7770   11.1470 C   0  0  0  0  0  2  0  0  0  0  0  0
    1.1800   -5.0220   10.4410 C   0  0  0  0  0  2  0  0  0  0  0  0
    2.4650   -4.7300    9.6660 C   0  0  0  0  0  2  0  0  0  0  0  0
    3.9250   -2.6280    7.6810 C   0  0  0  0  0  0  0  0  0  0  0  0
    3.5710   -3.2820    6.4960 C   0  0  0  0  0  3  0  0  0  0  0  0
    2.5920   -2.7430    5.6590 C   0  0  0  0  0  3  0  0  0  0  0  0
    1.9620   -1.5470    6.0040 C   0  0  0  0  0  3  0  0  0  0  0  0
    2.3070   -0.8910    7.1850 C   0  0  0  0  0  3  0  0  0  0  0  0
    3.2860   -1.4300    8.0220 C   0  0  0  0  0  3  0  0  0  0  0  0
   10.8220   -5.4850   11.4540 O   0  0  0  0  0  1  0  0  0  0  0  0
   10.4550   -4.7390   10.5000 C   0  0  0  0  0  0  0  0  0  0  0  0
   11.1680   -4.1500    9.6350 O   0  0  0  0  0  0  0  0  0  0  0  0
  1 23  1  0  0  0  0
  1  2  1  0  0  0  0
  3  2  2  0  0  0  0
  4  3  1  0  0  0  0
  5  4  2  0  0  0  0
  5 10  1  0  0  0  0
  6  5  1  0  0  0  0
  7  6  2  0  0  0  0
  7  8  1  0  0  0  0
  8  9  1  0  0  0  0
  8  4  1  0  0  0  0
  9  1  2  0  0  0  0
 10 11  1  0  0  0  0
 11 12  1  0  0  0  0
 13 12  1  0  0  0  0
 14 13  1  0  0  0  0
 15 14  1  0  0  0  0
 15 10  1  0  0  0  0
 16 21  1  0  0  0  0
 16  6  1  0  0  0  0
 17 16  2  0  0  0  0
 18 19  2  0  0  0  0
 18 17  1  0  0  0  0
 19 20  1  0  0  0  0
 20 21  2  0  0  0  0
 23 22  1  0  0  0  0
 24 23  2  0  0  0  0
M  END
>  <minimizedAffinity>
-6.01191616

$$$$
