
 OpenBabel09132204463D

 24 27  0  0  0  0  0  0  0  0999 V2000
    4.4290   -4.5170    4.9760 C   0  0  0  0  0  0  0  0  0  0  0  0
    3.6200   -5.2720    5.9220 C   0  0  0  0  0  3  0  0  0  0  0  0
    3.3640   -4.8170    7.1640 C   0  0  0  0  0  3  0  0  0  0  0  0
    3.8920   -3.5570    7.5890 C   0  0  0  0  0  0  0  0  0  0  0  0
    3.8220   -2.8070    8.7580 C   0  0  0  0  0  0  0  0  0  0  0  0
    4.5970   -1.6220    8.5180 C   0  0  0  0  0  0  0  0  0  0  0  0
    5.0860   -1.6900    7.2300 C   0  0  0  0  0  3  0  0  0  0  0  0
    4.6630   -2.8660    6.6580 N   0  0  0  0  0  0  0  0  0  0  0  0
    4.9290   -3.3340    5.3740 C   0  0  0  0  0  3  0  0  0  0  0  0
    3.0800   -3.1340   10.0330 C   0  0  0  0  0  3  0  0  0  0  0  0
    1.5630   -3.2740    9.8150 C   0  0  0  0  0  2  0  0  0  0  0  0
    0.8340   -3.5720   11.1230 C   0  0  0  0  0  2  0  0  0  0  0  0
    1.4140   -4.7980   11.8240 C   0  0  0  0  0  2  0  0  0  0  0  0
    2.9160   -4.6570   12.0520 C   0  0  0  0  0  2  0  0  0  0  0  0
    3.6600   -4.3640   10.7500 C   0  0  0  0  0  2  0  0  0  0  0  0
    4.8920   -0.4990    9.3900 C   0  0  0  0  0  0  0  0  0  0  0  0
    6.2170   -0.1000    9.5990 C   0  0  0  0  0  3  0  0  0  0  0  0
    6.5040    0.9780   10.4400 C   0  0  0  0  0  3  0  0  0  0  0  0
    5.4660    1.6610   11.0740 C   0  0  0  0  0  3  0  0  0  0  0  0
    4.1430    1.2720   10.8680 C   0  0  0  0  0  3  0  0  0  0  0  0
    3.8570    0.1940   10.0270 C   0  0  0  0  0  3  0  0  0  0  0  0
    4.2120   -4.4120    2.6010 O   0  0  0  0  0  0  0  0  0  0  0  0
    4.6900   -5.0850    3.5610 C   0  0  0  0  0  0  0  0  0  0  0  0
    5.3540   -6.1620    3.5210 O   0  0  0  0  0  1  0  0  0  0  0  0
  1  9  2  0  0  0  0
  1  2  1  0  0  0  0
  2  3  2  0  0  0  0
  3  4  1  0  0  0  0
  4  5  2  0  0  0  0
  5 10  1  0  0  0  0
  6  5  1  0  0  0  0
  6 16  1  0  0  0  0
  7  6  2  0  0  0  0
  8  7  1  0  0  0  0
  8  4  1  0  0  0  0
  9  8  1  0  0  0  0
 10 15  1  0  0  0  0
 11 10  1  0  0  0  0
 11 12  1  0  0  0  0
 12 13  1  0  0  0  0
 13 14  1  0  0  0  0
 15 14  1  0  0  0  0
 16 17  2  0  0  0  0
 16 21  1  0  0  0  0
 17 18  1  0  0  0  0
 18 19  2  0  0  0  0
 20 19  1  0  0  0  0
 21 20  2  0  0  0  0
 22 23  2  0  0  0  0
 23  1  1  0  0  0  0
 24 23  1  0  0  0  0
M  END
>  <minimizedAffinity>
-6.15486383

$$$$
