
 OpenBabel09132204463D

 24 27  0  0  0  0  0  0  0  0999 V2000
   10.3530    3.3520    0.6790 C   0  0  0  0  0  0  0  0  0  0  0  0
   11.2840    2.9590   -0.3690 C   0  0  0  0  0  3  0  0  0  0  0  0
   11.4070    1.6790   -0.7700 C   0  0  0  0  0  3  0  0  0  0  0  0
   10.6100    0.6580   -0.1640 C   0  0  0  0  0  0  0  0  0  0  0  0
   10.4790   -0.7170   -0.3330 C   0  0  0  0  0  0  0  0  0  0  0  0
    9.4910   -1.1440    0.6190 C   0  0  0  0  0  0  0  0  0  0  0  0
    9.0570   -0.0290    1.3050 C   0  0  0  0  0  3  0  0  0  0  0  0
    9.7340    1.0710    0.8360 N   0  0  0  0  0  0  0  0  0  0  0  0
    9.6040    2.3930    1.2530 C   0  0  0  0  0  3  0  0  0  0  0  0
   11.2020   -1.6080   -1.3160 C   0  0  0  0  0  3  0  0  0  0  0  0
   11.9830   -0.8100   -2.3740 C   0  0  0  0  0  2  0  0  0  0  0  0
   12.6770   -1.7340   -3.3730 C   0  0  0  0  0  2  0  0  0  0  0  0
   13.5690   -2.7550   -2.6710 C   0  0  0  0  0  2  0  0  0  0  0  0
   12.7940   -3.5560   -1.6300 C   0  0  0  0  0  2  0  0  0  0  0  0
   12.0990   -2.6450   -0.6190 C   0  0  0  0  0  2  0  0  0  0  0  0
    8.9730   -2.4690    0.9040 C   0  0  0  0  0  0  0  0  0  0  0  0
    9.0610   -3.4810   -0.0580 C   0  0  0  0  0  3  0  0  0  0  0  0
    8.5600   -4.7570    0.2140 C   0  0  0  0  0  3  0  0  0  0  0  0
    7.9700   -5.0250    1.4490 C   0  0  0  0  0  3  0  0  0  0  0  0
    7.8820   -4.0220    2.4140 C   0  0  0  0  0  3  0  0  0  0  0  0
    8.3830   -2.7470    2.1430 C   0  0  0  0  0  3  0  0  0  0  0  0
   10.5770    5.0940    2.2960 O   0  0  0  0  0  1  0  0  0  0  0  0
   10.2490    4.8370    1.1000 C   0  0  0  0  0  0  0  0  0  0  0  0
    9.8470    5.6310    0.2000 O   0  0  0  0  0  0  0  0  0  0  0  0
  1 23  1  0  0  0  0
  1  9  2  0  0  0  0
  2  1  1  0  0  0  0
  3  2  2  0  0  0  0
  3  4  1  0  0  0  0
  4  8  1  0  0  0  0
  5  4  2  0  0  0  0
  5  6  1  0  0  0  0
  6 16  1  0  0  0  0
  6  7  2  0  0  0  0
  8  9  1  0  0  0  0
  8  7  1  0  0  0  0
 10 15  1  0  0  0  0
 10  5  1  0  0  0  0
 11 10  1  0  0  0  0
 12 13  1  0  0  0  0
 12 11  1  0  0  0  0
 13 14  1  0  0  0  0
 14 15  1  0  0  0  0
 16 21  1  0  0  0  0
 17 18  1  0  0  0  0
 17 16  2  0  0  0  0
 18 19  2  0  0  0  0
 19 20  1  0  0  0  0
 21 20  2  0  0  0  0
 23 22  1  0  0  0  0
 24 23  2  0  0  0  0
M  END
>  <minimizedAffinity>
-6.20019102

$$$$
