
 OpenBabel09132204463D

 24 27  0  0  0  0  0  0  0  0999 V2000
    8.6630   -2.2220    5.8230 C   0  0  0  0  0  0  0  0  0  0  0  0
    7.3600   -2.8710    5.8610 C   0  0  0  0  0  3  0  0  0  0  0  0
    6.3910   -2.4750    6.7080 C   0  0  0  0  0  3  0  0  0  0  0  0
    6.6250   -1.3880    7.6080 C   0  0  0  0  0  0  0  0  0  0  0  0
    5.8710   -0.7360    8.5790 C   0  0  0  0  0  0  0  0  0  0  0  0
    6.7220    0.2810    9.1290 C   0  0  0  0  0  0  0  0  0  0  0  0
    7.9330    0.2190    8.4710 C   0  0  0  0  0  3  0  0  0  0  0  0
    7.8830   -0.7950    7.5450 N   0  0  0  0  0  0  0  0  0  0  0  0
    8.8860   -1.2010    6.6700 C   0  0  0  0  0  3  0  0  0  0  0  0
    4.4410   -1.0070    8.9870 C   0  0  0  0  0  3  0  0  0  0  0  0
    3.4660   -0.9500    7.7980 C   0  0  0  0  0  2  0  0  0  0  0  0
    2.0260   -1.1960    8.2430 C   0  0  0  0  0  2  0  0  0  0  0  0
    1.8900   -2.5050    9.0160 C   0  0  0  0  0  2  0  0  0  0  0  0
    2.8480   -2.5590   10.2020 C   0  0  0  0  0  2  0  0  0  0  0  0
    4.2950   -2.3220    9.7710 C   0  0  0  0  0  2  0  0  0  0  0  0
    6.4730    1.2460   10.1850 C   0  0  0  0  0  0  0  0  0  0  0  0
    7.3490    2.3200   10.3780 C   0  0  0  0  0  3  0  0  0  0  0  0
    7.1130    3.2470   11.3950 C   0  0  0  0  0  3  0  0  0  0  0  0
    6.0000    3.1050   12.2230 C   0  0  0  0  0  3  0  0  0  0  0  0
    5.1200    2.0390   12.0340 C   0  0  0  0  0  3  0  0  0  0  0  0
    5.3560    1.1120   11.0170 C   0  0  0  0  0  3  0  0  0  0  0  0
   10.9180   -2.3050    5.0450 O   0  0  0  0  0  1  0  0  0  0  0  0
    9.7400   -2.7140    4.8280 C   0  0  0  0  0  0  0  0  0  0  0  0
    9.3220   -3.4730    3.9050 O   0  0  0  0  0  0  0  0  0  0  0  0
  1  2  1  0  0  0  0
  1  9  2  0  0  0  0
  2  3  2  0  0  0  0
  3  4  1  0  0  0  0
  4  5  2  0  0  0  0
  5 10  1  0  0  0  0
  5  6  1  0  0  0  0
  6 16  1  0  0  0  0
  7  6  2  0  0  0  0
  8  4  1  0  0  0  0
  8  7  1  0  0  0  0
  9  8  1  0  0  0  0
 10 15  1  0  0  0  0
 11 12  1  0  0  0  0
 11 10  1  0  0  0  0
 12 13  1  0  0  0  0
 13 14  1  0  0  0  0
 15 14  1  0  0  0  0
 16 17  2  0  0  0  0
 16 21  1  0  0  0  0
 17 18  1  0  0  0  0
 18 19  2  0  0  0  0
 20 19  1  0  0  0  0
 21 20  2  0  0  0  0
 23 22  1  0  0  0  0
 23  1  1  0  0  0  0
 24 23  2  0  0  0  0
M  END
>  <minimizedAffinity>
-6.39912558

$$$$
