
 OpenBabel09132204463D

 24 27  0  0  0  0  0  0  0  0999 V2000
    7.4550    0.4500   10.7590 C   0  0  0  0  0  0  0  0  0  0  0  0
    6.8250   -0.4650   11.7000 C   0  0  0  0  0  3  0  0  0  0  0  0
    5.8490   -1.3150   11.3240 C   0  0  0  0  0  3  0  0  0  0  0  0
    5.4010   -1.3370    9.9660 C   0  0  0  0  0  0  0  0  0  0  0  0
    4.4530   -2.0660    9.2560 C   0  0  0  0  0  0  0  0  0  0  0  0
    4.5030   -1.5780    7.9060 C   0  0  0  0  0  0  0  0  0  0  0  0
    5.4750   -0.6000    7.8470 C   0  0  0  0  0  3  0  0  0  0  0  0
    6.0250   -0.4460    9.0970 N   0  0  0  0  0  0  0  0  0  0  0  0
    7.0340    0.4320    9.4820 C   0  0  0  0  0  3  0  0  0  0  0  0
    3.5470   -3.1630    9.7660 C   0  0  0  0  0  3  0  0  0  0  0  0
    2.0670   -2.7470    9.7850 C   0  0  0  0  0  2  0  0  0  0  0  0
    1.1780   -3.8630   10.3340 C   0  0  0  0  0  2  0  0  0  0  0  0
    1.3820   -5.1700    9.5730 C   0  0  0  0  0  2  0  0  0  0  0  0
    2.8480   -5.5920    9.5630 C   0  0  0  0  0  2  0  0  0  0  0  0
    3.7490   -4.4880    9.0100 C   0  0  0  0  0  2  0  0  0  0  0  0
    3.7240   -1.9550    6.7410 C   0  0  0  0  0  0  0  0  0  0  0  0
    2.4490   -1.4160    6.5420 C   0  0  0  0  0  3  0  0  0  0  0  0
    1.6960   -1.7800    5.4240 C   0  0  0  0  0  3  0  0  0  0  0  0
    2.2170   -2.6830    4.4980 C   0  0  0  0  0  3  0  0  0  0  0  0
    3.4890   -3.2220    4.6870 C   0  0  0  0  0  3  0  0  0  0  0  0
    4.2420   -2.8580    5.8060 C   0  0  0  0  0  3  0  0  0  0  0  0
    8.6130    2.5350   10.6780 O   0  0  0  0  0  0  0  0  0  0  0  0
    8.5730    1.4030   11.2420 C   0  0  0  0  0  0  0  0  0  0  0  0
    9.3260    0.9420   12.1500 O   0  0  0  0  0  1  0  0  0  0  0  0
  1 23  1  0  0  0  0
  1  2  1  0  0  0  0
  3  2  2  0  0  0  0
  4  3  1  0  0  0  0
  5 10  1  0  0  0  0
  5  4  2  0  0  0  0
  6  5  1  0  0  0  0
  7  6  2  0  0  0  0
  7  8  1  0  0  0  0
  8  9  1  0  0  0  0
  8  4  1  0  0  0  0
  9  1  2  0  0  0  0
 10 11  1  0  0  0  0
 11 12  1  0  0  0  0
 13 12  1  0  0  0  0
 14 13  1  0  0  0  0
 15 14  1  0  0  0  0
 15 10  1  0  0  0  0
 16  6  1  0  0  0  0
 17 16  1  0  0  0  0
 18 17  2  0  0  0  0
 19 20  2  0  0  0  0
 19 18  1  0  0  0  0
 20 21  1  0  0  0  0
 21 16  2  0  0  0  0
 22 23  2  0  0  0  0
 23 24  1  0  0  0  0
M  END
>  <minimizedAffinity>
-5.91790342

$$$$
