
 OpenBabel09132204463D

 24 27  0  0  0  0  0  0  0  0999 V2000
    4.1590   -3.2710    5.1950 C   0  0  0  0  0  0  0  0  0  0  0  0
    5.5320   -3.7360    5.3390 C   0  0  0  0  0  3  0  0  0  0  0  0
    6.3560   -3.2420    6.2830 C   0  0  0  0  0  3  0  0  0  0  0  0
    5.8930   -2.2300    7.1820 C   0  0  0  0  0  0  0  0  0  0  0  0
    6.4540   -1.5260    8.2420 C   0  0  0  0  0  0  0  0  0  0  0  0
    5.4320   -0.6360    8.7160 C   0  0  0  0  0  0  0  0  0  0  0  0
    4.3040   -0.8430    7.9490 C   0  0  0  0  0  3  0  0  0  0  0  0
    4.5770   -1.8090    7.0120 N   0  0  0  0  0  0  0  0  0  0  0  0
    3.7220   -2.3180    6.0380 C   0  0  0  0  0  3  0  0  0  0  0  0
    7.8470   -1.6560    8.8150 C   0  0  0  0  0  3  0  0  0  0  0  0
    8.1360   -3.0690    9.3500 C   0  0  0  0  0  2  0  0  0  0  0  0
    9.5380   -3.1640    9.9510 C   0  0  0  0  0  2  0  0  0  0  0  0
   10.6070   -2.7110    8.9610 C   0  0  0  0  0  2  0  0  0  0  0  0
   10.3290   -1.3050    8.4370 C   0  0  0  0  0  2  0  0  0  0  0  0
    8.9320   -1.1970    7.8260 C   0  0  0  0  0  2  0  0  0  0  0  0
    5.4620    0.3460    9.7840 C   0  0  0  0  0  0  0  0  0  0  0  0
    6.6290    1.0750   10.0370 C   0  0  0  0  0  3  0  0  0  0  0  0
    6.6610    2.0190   11.0660 C   0  0  0  0  0  3  0  0  0  0  0  0
    5.5260    2.2380   11.8460 C   0  0  0  0  0  3  0  0  0  0  0  0
    4.3580    1.5180   11.5980 C   0  0  0  0  0  3  0  0  0  0  0  0
    4.3250    0.5740   10.5690 C   0  0  0  0  0  3  0  0  0  0  0  0
    3.8390   -4.2210    3.0290 O   0  0  0  0  0  0  0  0  0  0  0  0
    3.2530   -3.8740    4.0960 C   0  0  0  0  0  0  0  0  0  0  0  0
    2.0230   -3.9530    4.3870 O   0  0  0  0  0  1  0  0  0  0  0  0
  1  2  1  0  0  0  0
  1  9  2  0  0  0  0
  2  3  2  0  0  0  0
  3  4  1  0  0  0  0
  4  5  2  0  0  0  0
  5  6  1  0  0  0  0
  5 10  1  0  0  0  0
  6 16  1  0  0  0  0
  7  6  2  0  0  0  0
  8  4  1  0  0  0  0
  8  7  1  0  0  0  0
  9  8  1  0  0  0  0
 10 11  1  0  0  0  0
 11 12  1  0  0  0  0
 13 12  1  0  0  0  0
 14 13  1  0  0  0  0
 15 14  1  0  0  0  0
 15 10  1  0  0  0  0
 16 17  2  0  0  0  0
 16 21  1  0  0  0  0
 17 18  1  0  0  0  0
 18 19  2  0  0  0  0
 20 19  1  0  0  0  0
 21 20  2  0  0  0  0
 22 23  2  0  0  0  0
 23 24  1  0  0  0  0
 23  1  1  0  0  0  0
M  END
>  <minimizedAffinity>
-5.83738995

$$$$
