
 OpenBabel09122222393D

 50 56  0  0  0  0  0  0  0  0999 V2000
    3.5190   -4.1200    3.4680 O   0  0  0  0  0  0  0  0  0  0  0  0
    4.1890   -2.3620    7.1880 C   0  0  0  0  0  0  0  0  0  0  0  0
    2.9660   -2.2280    6.5250 C   0  0  0  0  0  3  0  0  0  0  0  0
    2.7630   -2.8400    5.2880 C   0  0  0  0  0  3  0  0  0  0  0  0
    3.7940   -3.5620    4.6860 C   0  0  0  0  0  0  0  0  0  0  0  0
    5.0110   -3.7210    5.3460 C   0  0  0  0  0  3  0  0  0  0  0  0
    5.2120   -3.1080    6.5860 C   0  0  0  0  0  3  0  0  0  0  0  0
    5.6910    0.9220   11.9580 C   0  0  0  0  0  0  0  0  0  0  0  0
    5.1270   -0.1380   12.6850 C   0  0  0  0  0  3  0  0  0  0  0  0
    4.5360   -1.2420   12.0580 C   0  0  0  0  0  3  0  0  0  0  0  0
    4.5280   -1.2620   10.6570 C   0  0  0  0  0  0  0  0  0  0  0  0
    5.0750   -0.2280    9.9040 C   0  0  0  0  0  0  0  0  0  0  0  0
    5.6560    0.8740   10.5510 C   0  0  0  0  0  3  0  0  0  0  0  0
    4.9570   -0.4830    8.5620 N   0  0  0  0  0  0  0  0  0  0  0  0
    4.4000   -1.6760    8.4630 C   0  0  0  0  0  0  0  0  0  0  0  0
    4.0470   -2.1520    9.7170 N   0  0  0  0  0  0  0  0  0  0  0  0
    3.2580   -3.3520    9.9800 C   0  0  0  0  0  3  0  0  0  0  0  0
    4.0080   -4.3800   10.8420 C   0  0  0  0  0  2  0  0  0  0  0  0
    3.1770   -5.6450   11.0460 C   0  0  0  0  0  2  0  0  0  0  0  0
    1.7950   -5.3290   11.6100 C   0  0  0  0  0  2  0  0  0  0  0  0
    1.0470   -4.3190   10.7440 C   0  0  0  0  0  2  0  0  0  0  0  0
    1.8600   -3.0410   10.5410 C   0  0  0  0  0  2  0  0  0  0  0  0
    7.5300    1.9460   13.0690 O   0  0  0  0  0  1  0  0  0  0  0  0
    6.3290    2.0950   12.6750 C   0  0  0  0  0  0  0  0  0  0  0  0
    5.6210    3.1400   12.8260 O   0  0  0  0  0  0  0  0  0  0  0  0
    4.6600   -4.3040    2.6180 C   0  0  0  0  0  2  0  0  0  0  0  0
    4.9810   -5.7680    2.3820 C   0  0  0  0  0  0  0  0  0  0  0  0
    4.0280   -6.7350    2.7620 C   0  0  0  0  0  3  0  0  0  0  0  0
    4.2910   -8.0990    2.6100 C   0  0  0  0  0  0  0  0  0  0  0  0
    5.4950   -8.5130    2.0410 C   0  0  0  0  0  3  0  0  0  0  0  0
    6.4450   -7.5650    1.6540 C   0  0  0  0  0  3  0  0  0  0  0  0
    6.2080   -6.1870    1.8170 C   0  0  0  0  0  0  0  0  0  0  0  0
    7.2340   -5.2380    1.3640 C   0  0  0  0  0  0  0  0  0  0  0  0
    7.7530   -5.3020    0.0620 C   0  0  0  0  0  3  0  0  0  0  0  0
    8.7310   -4.4000   -0.3620 C   0  0  0  0  0  3  0  0  0  0  0  0
    9.1930   -3.4190    0.5120 C   0  0  0  0  0  0  0  0  0  0  0  0
   10.3990   -2.3080   -0.0090 Cl  0  0  0  0  0  0  0  0  0  0  0  0
    8.6850   -3.3320    1.8050 C   0  0  0  0  0  3  0  0  0  0  0  0
    7.7080   -4.2380    2.2290 C   0  0  0  0  0  3  0  0  0  0  0  0
    3.2730   -9.1240    2.9260 C   0  0  0  0  0  0  0  0  0  0  0  0
    2.6900   -9.6790    1.9970 O   0  0  0  0  0  0  0  0  0  0  0  0
    2.9730   -9.4520    4.2190 N   0  0  0  0  0  0  0  0  0  0  0  0
    2.2480  -10.1550    4.2950 H   0  0  0  0  0  0  0  0  0  0  0  0
    3.6610   -9.1190    5.4550 C   0  0  0  0  0  2  0  0  0  0  0  0
    2.8840   -8.1080    6.2610 C   0  0  0  0  0  0  0  0  0  0  0  0
    3.4080   -6.8420    6.5610 C   0  0  0  0  0  3  0  0  0  0  0  0
    2.6900   -5.9410    7.3510 C   0  0  0  0  0  3  0  0  0  0  0  0
    1.4420   -6.2980    7.8600 C   0  0  0  0  0  3  0  0  0  0  0  0
    0.9120   -7.5540    7.5750 C   0  0  0  0  0  3  0  0  0  0  0  0
    1.6280   -8.4510    6.7810 C   0  0  0  0  0  3  0  0  0  0  0  0
  1  5  1  0  0  0  0
  2 15  1  0  0  0  0
  3  2  2  0  0  0  0
  4  3  1  0  0  0  0
  5  4  2  0  0  0  0
  5  6  1  0  0  0  0
  6  7  2  0  0  0  0
  7  2  1  0  0  0  0
  8 24  1  0  0  0  0
  8  9  1  0  0  0  0
 10  9  2  0  0  0  0
 11 10  1  0  0  0  0
 12 13  1  0  0  0  0
 12 11  2  0  0  0  0
 13  8  2  0  0  0  0
 14 12  1  0  0  0  0
 15 14  2  0  0  0  0
 15 16  1  0  0  0  0
 16 17  1  0  0  0  0
 16 11  1  0  0  0  0
 17 22  1  0  0  0  0
 17 18  1  0  0  0  0
 18 19  1  0  0  0  0
 19 20  1  0  0  0  0
 21 20  1  0  0  0  0
 22 21  1  0  0  0  0
 24 25  2  0  0  0  0
 24 23  1  0  0  0  0
 26  1  1  0  0  0  0
 27 26  1  0  0  0  0
 27 28  1  0  0  0  0
 29 28  2  0  0  0  0
 29 40  1  0  0  0  0
 30 29  1  0  0  0  0
 31 32  1  0  0  0  0
 31 30  2  0  0  0  0
 32 27  2  0  0  0  0
 33 32  1  0  0  0  0
 33 39  1  0  0  0  0
 34 33  2  0  0  0  0
 35 34  1  0  0  0  0
 35 36  2  0  0  0  0
 36 38  1  0  0  0  0
 37 36  1  0  0  0  0
 38 39  2  0  0  0  0
 40 42  1  0  0  0  0
 41 40  2  0  0  0  0
 42 43  1  0  0  0  0
 42 44  1  0  0  0  0
 44 45  1  0  0  0  0
 45 46  2  0  0  0  0
 45 50  1  0  0  0  0
 46 47  1  0  0  0  0
 47 48  2  0  0  0  0
 49 48  1  0  0  0  0
 50 49  2  0  0  0  0
M  END
>  <minimizedAffinity>
-9.36507225

$$$$
