
 OpenBabel09122222393D

 50 56  0  0  0  0  0  0  0  0999 V2000
    3.1930   -0.3240    8.3670 O   0  0  0  0  0  0  0  0  0  0  0  0
    3.7790   -3.2970    5.5040 C   0  0  0  0  0  0  0  0  0  0  0  0
    4.7780   -2.9570    6.4210 C   0  0  0  0  0  3  0  0  0  0  0  0
    4.5500   -1.9680    7.3790 C   0  0  0  0  0  3  0  0  0  0  0  0
    3.3340   -1.2870    7.4060 C   0  0  0  0  0  0  0  0  0  0  0  0
    2.3220   -1.6310    6.5110 C   0  0  0  0  0  3  0  0  0  0  0  0
    2.5510   -2.6220    5.5540 C   0  0  0  0  0  3  0  0  0  0  0  0
    5.0710   -6.7030    0.7580 C   0  0  0  0  0  0  0  0  0  0  0  0
    4.3070   -7.6720    1.4270 C   0  0  0  0  0  3  0  0  0  0  0  0
    3.7490   -7.4410    2.6910 C   0  0  0  0  0  3  0  0  0  0  0  0
    3.9730   -6.1890    3.2780 C   0  0  0  0  0  0  0  0  0  0  0  0
    4.7270   -5.2050    2.6450 C   0  0  0  0  0  0  0  0  0  0  0  0
    5.2850   -5.4590    1.3830 C   0  0  0  0  0  3  0  0  0  0  0  0
    4.7920   -4.0690    3.4100 N   0  0  0  0  0  0  0  0  0  0  0  0
    4.0510   -4.3030    4.4770 C   0  0  0  0  0  0  0  0  0  0  0  0
    3.5980   -5.6140    4.4760 N   0  0  0  0  0  0  0  0  0  0  0  0
    2.9020   -6.2750    5.5760 C   0  0  0  0  0  3  0  0  0  0  0  0
    1.4140   -6.5190    5.2770 C   0  0  0  0  0  2  0  0  0  0  0  0
    0.7060   -7.1550    6.4710 C   0  0  0  0  0  2  0  0  0  0  0  0
    1.4090   -8.4270    6.9340 C   0  0  0  0  0  2  0  0  0  0  0  0
    2.8830   -8.1790    7.2440 C   0  0  0  0  0  2  0  0  0  0  0  0
    3.6110   -7.5540    6.0550 C   0  0  0  0  0  2  0  0  0  0  0  0
    6.4370   -6.1160   -1.1000 O   0  0  0  0  0  1  0  0  0  0  0  0
    5.6510   -6.9890   -0.6120 C   0  0  0  0  0  0  0  0  0  0  0  0
    5.3130   -8.0800   -1.1710 O   0  0  0  0  0  0  0  0  0  0  0  0
    2.6140   -0.7790    9.5970 C   0  0  0  0  0  2  0  0  0  0  0  0
    3.6590   -1.1240   10.6420 C   0  0  0  0  0  0  0  0  0  0  0  0
    4.5750   -0.1250   11.0320 C   0  0  0  0  0  3  0  0  0  0  0  0
    5.5870   -0.4020   11.9550 C   0  0  0  0  0  0  0  0  0  0  0  0
    5.6730   -1.6700   12.5290 C   0  0  0  0  0  3  0  0  0  0  0  0
    4.7690   -2.6660   12.1560 C   0  0  0  0  0  3  0  0  0  0  0  0
    3.7540   -2.4140   11.2130 C   0  0  0  0  0  0  0  0  0  0  0  0
    2.8150   -3.4950   10.8840 C   0  0  0  0  0  0  0  0  0  0  0  0
    2.9190   -4.1980    9.6750 C   0  0  0  0  0  3  0  0  0  0  0  0
    2.0200   -5.2220    9.3630 C   0  0  0  0  0  3  0  0  0  0  0  0
    1.0140   -5.5560   10.2670 C   0  0  0  0  0  0  0  0  0  0  0  0
   -0.0940   -6.8160    9.8850 Cl  0  0  0  0  0  0  0  0  0  0  0  0
    0.8990   -4.8770   11.4760 C   0  0  0  0  0  3  0  0  0  0  0  0
    1.7970   -3.8510   11.7840 C   0  0  0  0  0  3  0  0  0  0  0  0
    6.5040    0.6530   12.4370 C   0  0  0  0  0  0  0  0  0  0  0  0
    6.0360    1.5910   13.0790 O   0  0  0  0  0  0  0  0  0  0  0  0
    7.8450    0.6010   12.1770 N   0  0  0  0  0  0  0  0  0  0  0  0
    8.3560    1.3920   12.5490 H   0  0  0  0  0  0  0  0  0  0  0  0
    8.6580   -0.4860   11.6550 C   0  0  0  0  0  2  0  0  0  0  0  0
    8.4140   -0.6950   10.1810 C   0  0  0  0  0  0  0  0  0  0  0  0
    8.1550   -1.9670    9.6490 C   0  0  0  0  0  3  0  0  0  0  0  0
    7.9810   -2.1430    8.2730 C   0  0  0  0  0  3  0  0  0  0  0  0
    8.0740   -1.0500    7.4120 C   0  0  0  0  0  3  0  0  0  0  0  0
    8.3380    0.2170    7.9260 C   0  0  0  0  0  3  0  0  0  0  0  0
    8.5050    0.3930    9.3000 C   0  0  0  0  0  3  0  0  0  0  0  0
  1 26  1  0  0  0  0
  2  7  2  0  0  0  0
  2  3  1  0  0  0  0
  3  4  2  0  0  0  0
  4  5  1  0  0  0  0
  5  1  1  0  0  0  0
  6  5  2  0  0  0  0
  7  6  1  0  0  0  0
  8 13  2  0  0  0  0
  8  9  1  0  0  0  0
  9 10  2  0  0  0  0
 10 11  1  0  0  0  0
 11 16  1  0  0  0  0
 12 11  2  0  0  0  0
 12 14  1  0  0  0  0
 13 12  1  0  0  0  0
 14 15  2  0  0  0  0
 15  2  1  0  0  0  0
 16 15  1  0  0  0  0
 16 17  1  0  0  0  0
 17 22  1  0  0  0  0
 18 17  1  0  0  0  0
 18 19  1  0  0  0  0
 19 20  1  0  0  0  0
 20 21  1  0  0  0  0
 22 21  1  0  0  0  0
 23 24  1  0  0  0  0
 24  8  1  0  0  0  0
 25 24  2  0  0  0  0
 26 27  1  0  0  0  0
 27 28  2  0  0  0  0
 27 32  1  0  0  0  0
 28 29  1  0  0  0  0
 29 40  1  0  0  0  0
 29 30  2  0  0  0  0
 31 30  1  0  0  0  0
 32 31  2  0  0  0  0
 33 32  1  0  0  0  0
 33 39  1  0  0  0  0
 34 33  2  0  0  0  0
 35 34  1  0  0  0  0
 35 36  2  0  0  0  0
 36 38  1  0  0  0  0
 37 36  1  0  0  0  0
 38 39  2  0  0  0  0
 40 41  2  0  0  0  0
 42 40  1  0  0  0  0
 42 43  1  0  0  0  0
 44 42  1  0  0  0  0
 45 44  1  0  0  0  0
 46 45  1  0  0  0  0
 47 46  2  0  0  0  0
 48 49  2  0  0  0  0
 48 47  1  0  0  0  0
 49 50  1  0  0  0  0
 50 45  2  0  0  0  0
M  END
>  <minimizedAffinity>
-9.18060207

$$$$
