
 OpenBabel09122222393D

 50 56  0  0  0  0  0  0  0  0999 V2000
    0.2630   -7.5760    7.6820 O   0  0  0  0  0  0  0  0  0  0  0  0
    3.1990   -7.1430    4.7540 C   0  0  0  0  0  0  0  0  0  0  0  0
    2.2020   -6.1800    4.9380 C   0  0  0  0  0  3  0  0  0  0  0  0
    1.2410   -6.3430    5.9370 C   0  0  0  0  0  3  0  0  0  0  0  0
    1.2470   -7.4860    6.7350 C   0  0  0  0  0  0  0  0  0  0  0  0
    2.2480   -8.4430    6.5750 C   0  0  0  0  0  3  0  0  0  0  0  0
    3.2100   -8.2770    5.5770 C   0  0  0  0  0  3  0  0  0  0  0  0
    7.1840   -5.5910    0.5700 C   0  0  0  0  0  0  0  0  0  0  0  0
    6.7530   -6.7640   -0.0700 C   0  0  0  0  0  3  0  0  0  0  0  0
    5.8010   -7.6190    0.5010 C   0  0  0  0  0  3  0  0  0  0  0  0
    5.2770   -7.2610    1.7490 C   0  0  0  0  0  0  0  0  0  0  0  0
    5.6820   -6.1070    2.4130 C   0  0  0  0  0  0  0  0  0  0  0  0
    6.6420   -5.2670    1.8290 C   0  0  0  0  0  3  0  0  0  0  0  0
    5.0180   -5.9690    3.6060 N   0  0  0  0  0  0  0  0  0  0  0  0
    4.1710   -6.9790    3.6730 C   0  0  0  0  0  0  0  0  0  0  0  0
    4.3520   -7.8370    2.5980 N   0  0  0  0  0  0  0  0  0  0  0  0
    3.7170   -9.1410    2.4340 C   0  0  0  0  0  3  0  0  0  0  0  0
    3.0000   -9.2880    1.0830 C   0  0  0  0  0  2  0  0  0  0  0  0
    2.2970  -10.6400    0.9730 C   0  0  0  0  0  2  0  0  0  0  0  0
    3.2540  -11.7980    1.2380 C   0  0  0  0  0  2  0  0  0  0  0  0
    3.9540  -11.6570    2.5860 C   0  0  0  0  0  2  0  0  0  0  0  0
    4.6730  -10.3150    2.7100 C   0  0  0  0  0  2  0  0  0  0  0  0
    8.3800   -4.8230   -1.3390 O   0  0  0  0  0  0  0  0  0  0  0  0
    8.2090   -4.6870   -0.0860 C   0  0  0  0  0  0  0  0  0  0  0  0
    8.8190   -3.8600    0.6630 O   0  0  0  0  0  1  0  0  0  0  0  0
    0.4770   -6.7750    8.8520 C   0  0  0  0  0  2  0  0  0  0  0  0
    1.7480   -7.1480    9.5900 C   0  0  0  0  0  0  0  0  0  0  0  0
    1.8320   -8.4270   10.1800 C   0  0  0  0  0  3  0  0  0  0  0  0
    2.9610   -8.8060   10.9110 C   0  0  0  0  0  0  0  0  0  0  0  0
    4.0370   -7.9270   11.0300 C   0  0  0  0  0  3  0  0  0  0  0  0
    3.9700   -6.6600   10.4460 C   0  0  0  0  0  3  0  0  0  0  0  0
    2.8340   -6.2510    9.7220 C   0  0  0  0  0  0  0  0  0  0  0  0
    2.8340   -4.9170    9.1060 C   0  0  0  0  0  0  0  0  0  0  0  0
    2.0700   -3.8720    9.6450 C   0  0  0  0  0  3  0  0  0  0  0  0
    2.0700   -2.6070    9.0540 C   0  0  0  0  0  3  0  0  0  0  0  0
    2.8440   -2.3750    7.9190 C   0  0  0  0  0  0  0  0  0  0  0  0
    2.8450   -0.8180    7.1880 Cl  0  0  0  0  0  0  0  0  0  0  0  0
    3.6170   -3.3960    7.3730 C   0  0  0  0  0  3  0  0  0  0  0  0
    3.6130   -4.6620    7.9650 C   0  0  0  0  0  3  0  0  0  0  0  0
    3.1010  -10.1700   11.4670 C   0  0  0  0  0  0  0  0  0  0  0  0
    3.2060  -10.3000   12.6850 O   0  0  0  0  0  0  0  0  0  0  0  0
    3.1210  -11.2690   10.6540 N   0  0  0  0  0  0  0  0  0  0  0  0
    3.2400  -12.1380   11.1600 H   0  0  0  0  0  0  0  0  0  0  0  0
    2.7930  -11.3990    9.2440 C   0  0  0  0  0  2  0  0  0  0  0  0
    3.9950  -11.8240    8.4380 C   0  0  0  0  0  0  0  0  0  0  0  0
    5.1820  -12.2540    9.0510 C   0  0  0  0  0  3  0  0  0  0  0  0
    6.2990  -12.5940    8.2840 C   0  0  0  0  0  3  0  0  0  0  0  0
    6.2470  -12.5000    6.8940 C   0  0  0  0  0  3  0  0  0  0  0  0
    5.0780  -12.0690    6.2720 C   0  0  0  0  0  3  0  0  0  0  0  0
    3.9610  -11.7350    7.0390 C   0  0  0  0  0  3  0  0  0  0  0  0
  1 26  1  0  0  0  0
  2  3  2  0  0  0  0
  2  7  1  0  0  0  0
  3  4  1  0  0  0  0
  4  5  2  0  0  0  0
  5  1  1  0  0  0  0
  6  5  1  0  0  0  0
  7  6  2  0  0  0  0
  8 13  1  0  0  0  0
  9 10  1  0  0  0  0
  9  8  2  0  0  0  0
 10 11  2  0  0  0  0
 11 12  1  0  0  0  0
 11 16  1  0  0  0  0
 12 14  1  0  0  0  0
 13 12  2  0  0  0  0
 14 15  2  0  0  0  0
 15  2  1  0  0  0  0
 16 15  1  0  0  0  0
 17 16  1  0  0  0  0
 17 22  1  0  0  0  0
 18 17  1  0  0  0  0
 19 18  1  0  0  0  0
 19 20  1  0  0  0  0
 20 21  1  0  0  0  0
 21 22  1  0  0  0  0
 23 24  2  0  0  0  0
 24  8  1  0  0  0  0
 24 25  1  0  0  0  0
 26 27  1  0  0  0  0
 27 32  2  0  0  0  0
 27 28  1  0  0  0  0
 28 29  2  0  0  0  0
 29 30  1  0  0  0  0
 29 40  1  0  0  0  0
 31 30  2  0  0  0  0
 32 31  1  0  0  0  0
 33 34  1  0  0  0  0
 33 32  1  0  0  0  0
 35 34  2  0  0  0  0
 36 35  1  0  0  0  0
 37 36  1  0  0  0  0
 38 36  2  0  0  0  0
 38 39  1  0  0  0  0
 39 33  2  0  0  0  0
 40 41  2  0  0  0  0
 42 43  1  0  0  0  0
 42 40  1  0  0  0  0
 44 42  1  0  0  0  0
 45 46  1  0  0  0  0
 45 44  1  0  0  0  0
 47 46  2  0  0  0  0
 48 47  1  0  0  0  0
 49 48  2  0  0  0  0
 49 50  1  0  0  0  0
 50 45  2  0  0  0  0
M  END
>  <minimizedAffinity>
-9.20571518

$$$$
