
 OpenBabel09122222393D

 50 56  0  0  0  0  0  0  0  0999 V2000
    2.2120   -3.0850    7.1280 O   0  0  0  0  0  0  0  0  0  0  0  0
    5.0720   -3.8620    4.1960 C   0  0  0  0  0  0  0  0  0  0  0  0
    5.3900   -3.9020    5.5570 C   0  0  0  0  0  3  0  0  0  0  0  0
    4.4090   -3.6540    6.5180 C   0  0  0  0  0  3  0  0  0  0  0  0
    3.1120   -3.3270    6.1260 C   0  0  0  0  0  0  0  0  0  0  0  0
    2.7770   -3.3040    4.7730 C   0  0  0  0  0  3  0  0  0  0  0  0
    3.7590   -3.5550    3.8120 C   0  0  0  0  0  3  0  0  0  0  0  0
    9.6510   -3.9130    0.3450 C   0  0  0  0  0  0  0  0  0  0  0  0
    8.9050   -4.9090   -0.3050 C   0  0  0  0  0  3  0  0  0  0  0  0
    7.6830   -5.3750    0.1980 C   0  0  0  0  0  3  0  0  0  0  0  0
    7.2140   -4.8040    1.3880 C   0  0  0  0  0  0  0  0  0  0  0  0
    7.9280   -3.8160    2.0610 C   0  0  0  0  0  0  0  0  0  0  0  0
    9.1540   -3.3690    1.5460 C   0  0  0  0  0  3  0  0  0  0  0  0
    7.2590   -3.4090    3.1870 N   0  0  0  0  0  0  0  0  0  0  0  0
    6.1230   -4.0800    3.2010 C   0  0  0  0  0  0  0  0  0  0  0  0
    6.0890   -5.0010    2.1650 N   0  0  0  0  0  0  0  0  0  0  0  0
    5.0710   -6.0300    1.9730 C   0  0  0  0  0  3  0  0  0  0  0  0
    4.9310   -6.4620    0.5050 C   0  0  0  0  0  2  0  0  0  0  0  0
    3.8180   -7.4940    0.3350 C   0  0  0  0  0  2  0  0  0  0  0  0
    4.0060   -8.6880    1.2650 C   0  0  0  0  0  2  0  0  0  0  0  0
    4.1310   -8.2570    2.7230 C   0  0  0  0  0  2  0  0  0  0  0  0
    5.2500   -7.2340    2.9140 C   0  0  0  0  0  2  0  0  0  0  0  0
   11.9790   -3.4540    0.5320 O   0  0  0  0  0  1  0  0  0  0  0  0
   10.9640   -3.4310   -0.2360 C   0  0  0  0  0  0  0  0  0  0  0  0
   10.9570   -3.0430   -1.4470 O   0  0  0  0  0  0  0  0  0  0  0  0
    2.7070   -2.2670    8.1970 C   0  0  0  0  0  2  0  0  0  0  0  0
    2.5830   -2.9390    9.5510 C   0  0  0  0  0  0  0  0  0  0  0  0
    1.7610   -4.0800    9.6630 C   0  0  0  0  0  3  0  0  0  0  0  0
    1.5730   -4.7110   10.8950 C   0  0  0  0  0  0  0  0  0  0  0  0
    2.2360   -4.2330   12.0250 C   0  0  0  0  0  3  0  0  0  0  0  0
    3.0580   -3.1090   11.9280 C   0  0  0  0  0  3  0  0  0  0  0  0
    3.2440   -2.4460   10.7000 C   0  0  0  0  0  0  0  0  0  0  0  0
    4.1450   -1.2860   10.6550 C   0  0  0  0  0  0  0  0  0  0  0  0
    5.5080   -1.4410   10.3660 C   0  0  0  0  0  3  0  0  0  0  0  0
    6.3610   -0.3350   10.3290 C   0  0  0  0  0  3  0  0  0  0  0  0
    5.8530    0.9380   10.5740 C   0  0  0  0  0  0  0  0  0  0  0  0
    6.9010    2.3020   10.5290 Cl  0  0  0  0  0  0  0  0  0  0  0  0
    4.5010    1.1150   10.8530 C   0  0  0  0  0  3  0  0  0  0  0  0
    3.6500    0.0070   10.8920 C   0  0  0  0  0  3  0  0  0  0  0  0
    0.7820   -5.9540   11.0160 C   0  0  0  0  0  0  0  0  0  0  0  0
   -0.3360   -5.8930   11.5250 O   0  0  0  0  0  0  0  0  0  0  0  0
    1.2730   -7.1540   10.5810 N   0  0  0  0  0  0  0  0  0  0  0  0
    0.6380   -7.9270   10.7390 H   0  0  0  0  0  0  0  0  0  0  0  0
    2.4350   -7.4490    9.7590 C   0  0  0  0  0  2  0  0  0  0  0  0
    2.1320   -7.2610    8.2940 C   0  0  0  0  0  0  0  0  0  0  0  0
    0.8250   -7.3500    7.7920 C   0  0  0  0  0  3  0  0  0  0  0  0
    0.5750   -7.2220    6.4230 C   0  0  0  0  0  3  0  0  0  0  0  0
    1.6310   -7.0120    5.5370 C   0  0  0  0  0  3  0  0  0  0  0  0
    2.9350   -6.9280    6.0200 C   0  0  0  0  0  3  0  0  0  0  0  0
    3.1820   -7.0510    7.3880 C   0  0  0  0  0  3  0  0  0  0  0  0
  1 26  1  0  0  0  0
  2  3  1  0  0  0  0
  3  4  2  0  0  0  0
  5  4  1  0  0  0  0
  5  1  1  0  0  0  0
  6  5  2  0  0  0  0
  7  2  2  0  0  0  0
  7  6  1  0  0  0  0
  8 13  1  0  0  0  0
  9 10  1  0  0  0  0
  9  8  2  0  0  0  0
 10 11  2  0  0  0  0
 11 12  1  0  0  0  0
 11 16  1  0  0  0  0
 12 14  1  0  0  0  0
 13 12  2  0  0  0  0
 14 15  2  0  0  0  0
 15  2  1  0  0  0  0
 16 15  1  0  0  0  0
 17 16  1  0  0  0  0
 17 22  1  0  0  0  0
 18 17  1  0  0  0  0
 19 18  1  0  0  0  0
 19 20  1  0  0  0  0
 20 21  1  0  0  0  0
 21 22  1  0  0  0  0
 24  8  1  0  0  0  0
 24 23  1  0  0  0  0
 25 24  2  0  0  0  0
 26 27  1  0  0  0  0
 27 28  2  0  0  0  0
 27 32  1  0  0  0  0
 28 29  1  0  0  0  0
 29 40  1  0  0  0  0
 29 30  2  0  0  0  0
 31 30  1  0  0  0  0
 32 31  2  0  0  0  0
 33 32  1  0  0  0  0
 33 39  1  0  0  0  0
 34 33  2  0  0  0  0
 35 34  1  0  0  0  0
 35 36  2  0  0  0  0
 36 38  1  0  0  0  0
 37 36  1  0  0  0  0
 38 39  2  0  0  0  0
 40 41  2  0  0  0  0
 42 43  1  0  0  0  0
 42 40  1  0  0  0  0
 44 42  1  0  0  0  0
 45 44  1  0  0  0  0
 46 45  1  0  0  0  0
 47 46  2  0  0  0  0
 48 49  2  0  0  0  0
 48 47  1  0  0  0  0
 49 50  1  0  0  0  0
 50 45  2  0  0  0  0
M  END
>  <minimizedAffinity>
-9.27360249

$$$$
