
 OpenBabel09122222393D

 50 56  0  0  0  0  0  0  0  0999 V2000
    5.4290   -4.6520    4.9240 O   0  0  0  0  0  0  0  0  0  0  0  0
    5.7270   -1.7920    7.9430 C   0  0  0  0  0  0  0  0  0  0  0  0
    4.6360   -1.8220    7.0690 C   0  0  0  0  0  3  0  0  0  0  0  0
    4.5540   -2.8010    6.0770 C   0  0  0  0  0  3  0  0  0  0  0  0
    5.5780   -3.7350    5.9280 C   0  0  0  0  0  0  0  0  0  0  0  0
    6.6610   -3.7290    6.8070 C   0  0  0  0  0  3  0  0  0  0  0  0
    6.7410   -2.7500    7.8000 C   0  0  0  0  0  3  0  0  0  0  0  0
    6.8590    2.8040   11.6020 C   0  0  0  0  0  0  0  0  0  0  0  0
    6.0700    2.0850   12.5140 C   0  0  0  0  0  3  0  0  0  0  0  0
    5.4550    0.8720   12.1750 C   0  0  0  0  0  3  0  0  0  0  0  0
    5.6580    0.3840   10.8790 C   0  0  0  0  0  0  0  0  0  0  0  0
    6.4320    1.0710    9.9480 C   0  0  0  0  0  0  0  0  0  0  0  0
    7.0330    2.2880   10.3030 C   0  0  0  0  0  3  0  0  0  0  0  0
    6.4920    0.3880    8.7600 N   0  0  0  0  0  0  0  0  0  0  0  0
    5.8200   -0.7320    8.9470 C   0  0  0  0  0  0  0  0  0  0  0  0
    5.2260   -0.7390   10.2010 N   0  0  0  0  0  0  0  0  0  0  0  0
    4.2700   -1.7310   10.6850 C   0  0  0  0  0  3  0  0  0  0  0  0
    4.9330   -2.8360   11.5220 C   0  0  0  0  0  2  0  0  0  0  0  0
    3.9130   -3.8860   11.9590 C   0  0  0  0  0  2  0  0  0  0  0  0
    2.7280   -3.2560   12.6840 C   0  0  0  0  0  2  0  0  0  0  0  0
    2.0630   -2.1690   11.8440 C   0  0  0  0  0  2  0  0  0  0  0  0
    3.0670   -1.1020   11.4090 C   0  0  0  0  0  2  0  0  0  0  0  0
    7.0920    4.6550   13.0790 O   0  0  0  0  0  1  0  0  0  0  0  0
    7.5140    4.1080   12.0110 C   0  0  0  0  0  0  0  0  0  0  0  0
    8.4370    4.5560   11.2600 O   0  0  0  0  0  0  0  0  0  0  0  0
    5.2660   -4.0920    3.6150 C   0  0  0  0  0  2  0  0  0  0  0  0
    6.5230   -4.2040    2.7720 C   0  0  0  0  0  0  0  0  0  0  0  0
    7.5660   -3.2810    2.9950 C   0  0  0  0  0  3  0  0  0  0  0  0
    8.7260   -3.3090    2.2170 C   0  0  0  0  0  0  0  0  0  0  0  0
    8.8750   -4.2850    1.2310 C   0  0  0  0  0  3  0  0  0  0  0  0
    7.8530   -5.2090    1.0050 C   0  0  0  0  0  3  0  0  0  0  0  0
    6.6680   -5.1850    1.7640 C   0  0  0  0  0  0  0  0  0  0  0  0
    5.6410   -6.2020    1.4980 C   0  0  0  0  0  0  0  0  0  0  0  0
    5.3240   -7.1760    2.4570 C   0  0  0  0  0  3  0  0  0  0  0  0
    4.3500   -8.1430    2.1980 C   0  0  0  0  0  3  0  0  0  0  0  0
    3.6780   -8.1380    0.9780 C   0  0  0  0  0  0  0  0  0  0  0  0
    2.4780   -9.3280    0.6570 Cl  0  0  0  0  0  0  0  0  0  0  0  0
    3.9690   -7.1740    0.0170 C   0  0  0  0  0  3  0  0  0  0  0  0
    4.9470   -6.2090    0.2770 C   0  0  0  0  0  3  0  0  0  0  0  0
    9.8630   -2.4040    2.4880 C   0  0  0  0  0  0  0  0  0  0  0  0
   10.6800   -2.7280    3.3480 O   0  0  0  0  0  0  0  0  0  0  0  0
   10.0120   -1.2270    1.8090 N   0  0  0  0  0  0  0  0  0  0  0  0
   10.8220   -0.6950    2.1030 H   0  0  0  0  0  0  0  0  0  0  0  0
    9.3340   -0.7380    0.6200 C   0  0  0  0  0  2  0  0  0  0  0  0
   10.2660   -0.6950   -0.5650 C   0  0  0  0  0  0  0  0  0  0  0  0
   10.4330    0.4690   -1.3320 C   0  0  0  0  0  3  0  0  0  0  0  0
   11.2640    0.4700   -2.4550 C   0  0  0  0  0  3  0  0  0  0  0  0
   11.9320   -0.6940   -2.8310 C   0  0  0  0  0  3  0  0  0  0  0  0
   11.7710   -1.8580   -2.0840 C   0  0  0  0  0  3  0  0  0  0  0  0
   10.9450   -1.8570   -0.9590 C   0  0  0  0  0  3  0  0  0  0  0  0
  1  5  1  0  0  0  0
  2 15  1  0  0  0  0
  3  2  2  0  0  0  0
  4  3  1  0  0  0  0
  5  4  2  0  0  0  0
  5  6  1  0  0  0  0
  6  7  2  0  0  0  0
  7  2  1  0  0  0  0
  8 24  1  0  0  0  0
  8  9  1  0  0  0  0
 10  9  2  0  0  0  0
 11 10  1  0  0  0  0
 12 13  1  0  0  0  0
 12 11  2  0  0  0  0
 13  8  2  0  0  0  0
 14 15  2  0  0  0  0
 14 12  1  0  0  0  0
 15 16  1  0  0  0  0
 16 17  1  0  0  0  0
 16 11  1  0  0  0  0
 17 22  1  0  0  0  0
 17 18  1  0  0  0  0
 18 19  1  0  0  0  0
 19 20  1  0  0  0  0
 21 20  1  0  0  0  0
 22 21  1  0  0  0  0
 24 23  1  0  0  0  0
 25 24  2  0  0  0  0
 26  1  1  0  0  0  0
 27 28  1  0  0  0  0
 27 26  1  0  0  0  0
 29 40  1  0  0  0  0
 29 28  2  0  0  0  0
 30 29  1  0  0  0  0
 31 30  2  0  0  0  0
 31 32  1  0  0  0  0
 32 27  2  0  0  0  0
 33 32  1  0  0  0  0
 33 34  1  0  0  0  0
 35 34  2  0  0  0  0
 36 35  1  0  0  0  0
 37 36  1  0  0  0  0
 38 39  1  0  0  0  0
 38 36  2  0  0  0  0
 39 33  2  0  0  0  0
 40 41  2  0  0  0  0
 42 43  1  0  0  0  0
 42 40  1  0  0  0  0
 44 42  1  0  0  0  0
 45 44  1  0  0  0  0
 46 45  2  0  0  0  0
 47 46  1  0  0  0  0
 48 47  2  0  0  0  0
 48 49  1  0  0  0  0
 49 50  2  0  0  0  0
 50 45  1  0  0  0  0
M  END
>  <minimizedAffinity>
-9.15629387

$$$$
