
 OpenBabel09122222393D

 50 56  0  0  0  0  0  0  0  0999 V2000
   11.0300   -0.2790    6.6540 O   0  0  0  0  0  0  0  0  0  0  0  0
    9.3330   -2.5330    3.5840 C   0  0  0  0  0  0  0  0  0  0  0  0
    9.3150   -1.1350    3.5620 C   0  0  0  0  0  3  0  0  0  0  0  0
    9.9050   -0.4050    4.5950 C   0  0  0  0  0  3  0  0  0  0  0  0
   10.4860   -1.0660    5.6760 C   0  0  0  0  0  0  0  0  0  0  0  0
   10.5290   -2.4590    5.7000 C   0  0  0  0  0  3  0  0  0  0  0  0
    9.9400   -3.1880    4.6640 C   0  0  0  0  0  3  0  0  0  0  0  0
    6.2070   -6.0520   -0.1090 C   0  0  0  0  0  0  0  0  0  0  0  0
    7.2110   -5.7260   -1.0350 C   0  0  0  0  0  3  0  0  0  0  0  0
    8.2530   -4.8430   -0.7270 C   0  0  0  0  0  3  0  0  0  0  0  0
    8.2720   -4.2890    0.5590 C   0  0  0  0  0  0  0  0  0  0  0  0
    7.2940   -4.5880    1.5030 C   0  0  0  0  0  0  0  0  0  0  0  0
    6.2520   -5.4680    1.1720 C   0  0  0  0  0  3  0  0  0  0  0  0
    7.5360   -3.9350    2.6850 N   0  0  0  0  0  0  0  0  0  0  0  0
    8.6710   -3.2820    2.5170 C   0  0  0  0  0  0  0  0  0  0  0  0
    9.1130   -3.4050    1.2080 N   0  0  0  0  0  0  0  0  0  0  0  0
   10.2330   -2.6790    0.6160 C   0  0  0  0  0  3  0  0  0  0  0  0
   11.2870   -3.6130    0.0000 C   0  0  0  0  0  2  0  0  0  0  0  0
   12.4710   -2.8220   -0.5540 C   0  0  0  0  0  2  0  0  0  0  0  0
   12.0210   -1.7450   -1.5360 C   0  0  0  0  0  2  0  0  0  0  0  0
   10.9850   -0.8110   -0.9180 C   0  0  0  0  0  2  0  0  0  0  0  0
    9.7870   -1.5840   -0.3690 C   0  0  0  0  0  2  0  0  0  0  0  0
    5.4370   -8.0590   -1.1300 O   0  0  0  0  0  0  0  0  0  0  0  0
    5.1010   -7.0180   -0.4790 C   0  0  0  0  0  0  0  0  0  0  0  0
    3.9210   -6.7220   -0.1090 O   0  0  0  0  0  1  0  0  0  0  0  0
   10.1760   -0.0390    7.7800 C   0  0  0  0  0  2  0  0  0  0  0  0
   10.2740   -1.1320    8.8280 C   0  0  0  0  0  0  0  0  0  0  0  0
   11.5470   -1.4680    9.3330 C   0  0  0  0  0  3  0  0  0  0  0  0
   11.7000   -2.4980   10.2650 C   0  0  0  0  0  0  0  0  0  0  0  0
   10.5770   -3.1790   10.7340 C   0  0  0  0  0  3  0  0  0  0  0  0
    9.3100   -2.8530   10.2480 C   0  0  0  0  0  3  0  0  0  0  0  0
    9.1360   -1.8320    9.2930 C   0  0  0  0  0  0  0  0  0  0  0  0
    7.7740   -1.5140    8.8410 C   0  0  0  0  0  0  0  0  0  0  0  0
    6.9410   -0.6750    9.5950 C   0  0  0  0  0  3  0  0  0  0  0  0
    5.6460   -0.3790    9.1640 C   0  0  0  0  0  3  0  0  0  0  0  0
    5.1760   -0.9160    7.9680 C   0  0  0  0  0  0  0  0  0  0  0  0
    3.5810   -0.5540    7.4350 Cl  0  0  0  0  0  0  0  0  0  0  0  0
    5.9900   -1.7440    7.2000 C   0  0  0  0  0  3  0  0  0  0  0  0
    7.2850   -2.0410    7.6350 C   0  0  0  0  0  3  0  0  0  0  0  0
   13.0140   -2.8100   10.8660 C   0  0  0  0  0  0  0  0  0  0  0  0
   13.4750   -2.0390   11.7060 O   0  0  0  0  0  0  0  0  0  0  0  0
   13.7150   -3.9250   10.5010 N   0  0  0  0  0  0  0  0  0  0  0  0
   14.6060   -4.0110   10.9750 H   0  0  0  0  0  0  0  0  0  0  0  0
   13.3000   -5.0820    9.7250 C   0  0  0  0  0  2  0  0  0  0  0  0
   12.8960   -6.2270   10.6190 C   0  0  0  0  0  0  0  0  0  0  0  0
   11.5580   -6.6330   10.7410 C   0  0  0  0  0  3  0  0  0  0  0  0
   11.2010   -7.6640   11.6140 C   0  0  0  0  0  3  0  0  0  0  0  0
   12.1770   -8.2960   12.3840 C   0  0  0  0  0  3  0  0  0  0  0  0
   13.5070   -7.8990   12.2780 C   0  0  0  0  0  3  0  0  0  0  0  0
   13.8640   -6.8740   11.4020 C   0  0  0  0  0  3  0  0  0  0  0  0
  1 26  1  0  0  0  0
  2  7  1  0  0  0  0
  3  2  2  0  0  0  0
  3  4  1  0  0  0  0
  4  5  2  0  0  0  0
  5  6  1  0  0  0  0
  5  1  1  0  0  0  0
  7  6  2  0  0  0  0
  8 13  1  0  0  0  0
  9 10  1  0  0  0  0
  9  8  2  0  0  0  0
 10 11  2  0  0  0  0
 11 16  1  0  0  0  0
 11 12  1  0  0  0  0
 12 14  1  0  0  0  0
 13 12  2  0  0  0  0
 15 14  2  0  0  0  0
 15  2  1  0  0  0  0
 16 15  1  0  0  0  0
 17 16  1  0  0  0  0
 18 17  1  0  0  0  0
 19 18  1  0  0  0  0
 20 21  1  0  0  0  0
 20 19  1  0  0  0  0
 21 22  1  0  0  0  0
 22 17  1  0  0  0  0
 23 24  2  0  0  0  0
 24 25  1  0  0  0  0
 24  8  1  0  0  0  0
 26 27  1  0  0  0  0
 27 32  2  0  0  0  0
 27 28  1  0  0  0  0
 28 29  2  0  0  0  0
 29 30  1  0  0  0  0
 29 40  1  0  0  0  0
 31 30  2  0  0  0  0
 32 31  1  0  0  0  0
 33 32  1  0  0  0  0
 33 34  1  0  0  0  0
 35 34  2  0  0  0  0
 36 35  1  0  0  0  0
 37 36  1  0  0  0  0
 38 39  1  0  0  0  0
 38 36  2  0  0  0  0
 39 33  2  0  0  0  0
 40 41  2  0  0  0  0
 42 40  1  0  0  0  0
 42 43  1  0  0  0  0
 44 42  1  0  0  0  0
 44 45  1  0  0  0  0
 45 46  2  0  0  0  0
 45 50  1  0  0  0  0
 46 47  1  0  0  0  0
 47 48  2  0  0  0  0
 49 48  1  0  0  0  0
 50 49  2  0  0  0  0
M  END
>  <minimizedAffinity>
-10.0336313

$$$$
