
 OpenBabel09122222393D

 23 26  0  0  0  0  0  0  0  0999 V2000
    9.4470   10.5510   -2.6850 C   0  0  0  0  0  0  0  0  0  0  0  0
    9.7990    9.2390   -3.0420 C   0  0  0  0  0  3  0  0  0  0  0  0
   10.2210    8.2960   -2.0980 C   0  0  0  0  0  3  0  0  0  0  0  0
   10.2850    8.7030   -0.7590 C   0  0  0  0  0  0  0  0  0  0  0  0
    9.9640   10.0010   -0.3710 C   0  0  0  0  0  0  0  0  0  0  0  0
    9.5350   10.9300   -1.3310 C   0  0  0  0  0  3  0  0  0  0  0  0
   10.1480   10.1630    0.9780 N   0  0  0  0  0  0  0  0  0  0  0  0
   10.6270    9.0190    1.4270 C   0  0  0  0  0  0  0  0  0  0  0  0
   10.6070    8.0630    0.4240 N   0  0  0  0  0  0  0  0  0  0  0  0
   10.8020    6.6280    0.5890 C   0  0  0  0  0  3  0  0  0  0  0  0
    9.6190    5.7740    0.0950 C   0  0  0  0  0  2  0  0  0  0  0  0
    9.8620    4.2880    0.3600 C   0  0  0  0  0  2  0  0  0  0  0  0
   11.1850    3.8220   -0.2410 C   0  0  0  0  0  2  0  0  0  0  0  0
   12.3590    4.6600    0.2570 C   0  0  0  0  0  2  0  0  0  0  0  0
   12.1390    6.1510    0.0050 C   0  0  0  0  0  2  0  0  0  0  0  0
   11.1080    8.9050    2.8380 C   0  0  0  0  0  0  0  0  0  0  0  0
   11.4980    7.7920    3.6200 C   0  0  0  0  0  3  0  0  0  0  0  0
   11.8730    8.2940    4.8460 C   0  0  0  0  0  3  0  0  0  0  0  0
   11.7550    9.6450    4.8650 O   0  0  0  0  0  0  0  0  0  0  0  0
   11.3050   10.0120    3.6380 C   0  0  0  0  0  3  0  0  0  0  0  0
    9.8770   12.2930   -4.2490 O   0  0  0  0  0  0  0  0  0  0  0  0
    8.9880   11.5400   -3.7380 C   0  0  0  0  0  0  0  0  0  0  0  0
    7.7530   11.5440   -4.0340 O   0  0  0  0  0  1  0  0  0  0  0  0
  1  6  1  0  0  0  0
  2  1  2  0  0  0  0
  2  3  1  0  0  0  0
  3  4  2  0  0  0  0
  4  5  1  0  0  0  0
  4  9  1  0  0  0  0
  5  7  1  0  0  0  0
  6  5  2  0  0  0  0
  7  8  2  0  0  0  0
  8 16  1  0  0  0  0
  9 10  1  0  0  0  0
  9  8  1  0  0  0  0
 11 12  1  0  0  0  0
 11 10  1  0  0  0  0
 13 14  1  0  0  0  0
 13 12  1  0  0  0  0
 15 14  1  0  0  0  0
 15 10  1  0  0  0  0
 16 17  1  0  0  0  0
 16 20  2  0  0  0  0
 17 18  2  0  0  0  0
 18 19  1  0  0  0  0
 20 19  1  0  0  0  0
 21 22  2  0  0  0  0
 22  1  1  0  0  0  0
 23 22  1  0  0  0  0
M  END
>  <minimizedAffinity>
-5.36493921

$$$$
