
 OpenBabel09122222393D

 23 26  0  0  0  0  0  0  0  0999 V2000
    9.0460    9.3160    0.7450 C   0  0  0  0  0  0  0  0  0  0  0  0
    9.3540    8.6450   -0.4490 C   0  0  0  0  0  3  0  0  0  0  0  0
    9.8550    7.3380   -0.4640 C   0  0  0  0  0  3  0  0  0  0  0  0
   10.0470    6.7040    0.7700 C   0  0  0  0  0  0  0  0  0  0  0  0
    9.7740    7.3450    1.9750 C   0  0  0  0  0  0  0  0  0  0  0  0
    9.2630    8.6530    1.9690 C   0  0  0  0  0  3  0  0  0  0  0  0
   10.0840    6.5360    3.0370 N   0  0  0  0  0  0  0  0  0  0  0  0
   10.5940    5.4330    2.5250 C   0  0  0  0  0  0  0  0  0  0  0  0
   10.4740    5.4420    1.1450 N   0  0  0  0  0  0  0  0  0  0  0  0
   10.6730    4.3100    0.2480 C   0  0  0  0  0  3  0  0  0  0  0  0
   12.1530    3.9420    0.0240 C   0  0  0  0  0  2  0  0  0  0  0  0
   12.2900    2.7940   -0.9770 C   0  0  0  0  0  2  0  0  0  0  0  0
   11.4640    1.5830   -0.5550 C   0  0  0  0  0  2  0  0  0  0  0  0
    9.9960    1.9450   -0.3430 C   0  0  0  0  0  2  0  0  0  0  0  0
    9.8330    3.0920    0.6520 C   0  0  0  0  0  2  0  0  0  0  0  0
   11.2050    4.4000    3.4180 C   0  0  0  0  0  0  0  0  0  0  0  0
   12.5460    4.1380    3.7860 C   0  0  0  0  0  3  0  0  0  0  0  0
   12.5060    3.0740    4.6600 C   0  0  0  0  0  3  0  0  0  0  0  0
   11.2260    2.6730    4.8650 O   0  0  0  0  0  0  0  0  0  0  0  0
   10.4390    3.4930    4.1210 C   0  0  0  0  0  3  0  0  0  0  0  0
    8.5830   11.4020    1.7930 O   0  0  0  0  0  1  0  0  0  0  0  0
    8.4980   10.7290    0.7170 C   0  0  0  0  0  0  0  0  0  0  0  0
    7.9960   11.1370   -0.3770 O   0  0  0  0  0  0  0  0  0  0  0  0
  1  6  1  0  0  0  0
  2  1  2  0  0  0  0
  3  2  1  0  0  0  0
  3  4  2  0  0  0  0
  4  9  1  0  0  0  0
  4  5  1  0  0  0  0
  5  7  1  0  0  0  0
  6  5  2  0  0  0  0
  8  7  2  0  0  0  0
  8 16  1  0  0  0  0
  9  8  1  0  0  0  0
 10 15  1  0  0  0  0
 10  9  1  0  0  0  0
 11 10  1  0  0  0  0
 12 13  1  0  0  0  0
 12 11  1  0  0  0  0
 13 14  1  0  0  0  0
 14 15  1  0  0  0  0
 16 17  1  0  0  0  0
 16 20  2  0  0  0  0
 17 18  2  0  0  0  0
 18 19  1  0  0  0  0
 20 19  1  0  0  0  0
 22  1  1  0  0  0  0
 22 21  1  0  0  0  0
 23 22  2  0  0  0  0
M  END
>  <minimizedAffinity>
-5.44652605

$$$$
