
 OpenBabel09122222393D

 23 26  0  0  0  0  0  0  0  0999 V2000
   10.3210    4.6010    1.0010 C   0  0  0  0  0  0  0  0  0  0  0  0
    9.4900    5.1020   -0.0130 C   0  0  0  0  0  3  0  0  0  0  0  0
    9.2840    6.4740   -0.2000 C   0  0  0  0  0  3  0  0  0  0  0  0
    9.9440    7.3520    0.6690 C   0  0  0  0  0  0  0  0  0  0  0  0
   10.7590    6.8910    1.6990 C   0  0  0  0  0  0  0  0  0  0  0  0
   10.9590    5.5110    1.8650 C   0  0  0  0  0  3  0  0  0  0  0  0
   11.2510    7.9380    2.4340 N   0  0  0  0  0  0  0  0  0  0  0  0
   10.7200    9.0310    1.9240 C   0  0  0  0  0  0  0  0  0  0  0  0
   10.0170    8.7300    0.7690 N   0  0  0  0  0  0  0  0  0  0  0  0
    9.5160    9.6820   -0.2160 C   0  0  0  0  0  3  0  0  0  0  0  0
    8.5900   10.7640    0.3730 C   0  0  0  0  0  2  0  0  0  0  0  0
    8.0500   11.6830   -0.7220 C   0  0  0  0  0  2  0  0  0  0  0  0
    9.1780   12.2930   -1.5470 C   0  0  0  0  0  2  0  0  0  0  0  0
   10.0890   11.2220   -2.1410 C   0  0  0  0  0  2  0  0  0  0  0  0
   10.6410   10.2880   -1.0650 C   0  0  0  0  0  2  0  0  0  0  0  0
   10.9090   10.3490    2.6030 C   0  0  0  0  0  0  0  0  0  0  0  0
   10.1660   11.0140    3.6090 C   0  0  0  0  0  3  0  0  0  0  0  0
   10.8300   12.1930    3.8640 C   0  0  0  0  0  3  0  0  0  0  0  0
   11.9410   12.2920    3.0920 O   0  0  0  0  0  0  0  0  0  0  0  0
   11.9930   11.1620    2.3410 C   0  0  0  0  0  3  0  0  0  0  0  0
   10.7650    2.6830    2.3390 O   0  0  0  0  0  1  0  0  0  0  0  0
   10.5230    3.1070    1.1650 C   0  0  0  0  0  0  0  0  0  0  0  0
   10.4340    2.3890    0.1200 O   0  0  0  0  0  0  0  0  0  0  0  0
  1 22  1  0  0  0  0
  1  6  1  0  0  0  0
  2  1  2  0  0  0  0
  3  2  1  0  0  0  0
  3  4  2  0  0  0  0
  4  9  1  0  0  0  0
  4  5  1  0  0  0  0
  5  6  2  0  0  0  0
  5  7  1  0  0  0  0
  8  7  2  0  0  0  0
  8 16  1  0  0  0  0
  9  8  1  0  0  0  0
 10 11  1  0  0  0  0
 10  9  1  0  0  0  0
 12 11  1  0  0  0  0
 13 12  1  0  0  0  0
 14 13  1  0  0  0  0
 14 15  1  0  0  0  0
 15 10  1  0  0  0  0
 16 17  1  0  0  0  0
 17 18  2  0  0  0  0
 19 18  1  0  0  0  0
 20 16  2  0  0  0  0
 20 19  1  0  0  0  0
 22 21  1  0  0  0  0
 23 22  2  0  0  0  0
M  END
>  <minimizedAffinity>
-5.20936728

$$$$
