
 OpenBabel09122222393D

 23 26  0  0  0  0  0  0  0  0999 V2000
   10.4230    3.4030    2.9690 C   0  0  0  0  0  0  0  0  0  0  0  0
   10.4730    3.4230    1.5660 C   0  0  0  0  0  3  0  0  0  0  0  0
   10.5160    4.6170    0.8370 C   0  0  0  0  0  3  0  0  0  0  0  0
   10.5070    5.8180    1.5580 C   0  0  0  0  0  0  0  0  0  0  0  0
   10.4370    5.8380    2.9490 C   0  0  0  0  0  0  0  0  0  0  0  0
   10.4030    4.6290    3.6620 C   0  0  0  0  0  3  0  0  0  0  0  0
   10.3970    7.1260    3.4140 N   0  0  0  0  0  0  0  0  0  0  0  0
   10.3850    7.9040    2.3500 C   0  0  0  0  0  0  0  0  0  0  0  0
   10.5780    7.1520    1.2020 N   0  0  0  0  0  0  0  0  0  0  0  0
   10.8860    7.6620   -0.1290 C   0  0  0  0  0  3  0  0  0  0  0  0
    9.6570    8.1770   -0.9020 C   0  0  0  0  0  2  0  0  0  0  0  0
   10.0430    8.6320   -2.3100 C   0  0  0  0  0  2  0  0  0  0  0  0
   11.1630    9.6670   -2.2760 C   0  0  0  0  0  2  0  0  0  0  0  0
   12.3850    9.1540   -1.5190 C   0  0  0  0  0  2  0  0  0  0  0  0
   12.0250    8.6910   -0.1090 C   0  0  0  0  0  2  0  0  0  0  0  0
   10.1660    9.3760    2.4940 C   0  0  0  0  0  0  0  0  0  0  0  0
    9.1930   10.2490    1.9490 C   0  0  0  0  0  3  0  0  0  0  0  0
    9.4710   11.5000    2.4530 C   0  0  0  0  0  3  0  0  0  0  0  0
   10.5420   11.4520    3.2850 O   0  0  0  0  0  0  0  0  0  0  0  0
   10.9490   10.1570    3.3190 C   0  0  0  0  0  3  0  0  0  0  0  0
    9.6360    1.1740    3.2470 O   0  0  0  0  0  0  0  0  0  0  0  0
   10.3840    2.0880    3.7210 C   0  0  0  0  0  0  0  0  0  0  0  0
   11.1010    1.9920    4.7660 O   0  0  0  0  0  1  0  0  0  0  0  0
  1  6  1  0  0  0  0
  1 22  1  0  0  0  0
  2  1  2  0  0  0  0
  3  4  2  0  0  0  0
  3  2  1  0  0  0  0
  4  5  1  0  0  0  0
  5  7  1  0  0  0  0
  5  6  2  0  0  0  0
  8 16  1  0  0  0  0
  8  7  2  0  0  0  0
  9  4  1  0  0  0  0
  9  8  1  0  0  0  0
 10 15  1  0  0  0  0
 10  9  1  0  0  0  0
 11 10  1  0  0  0  0
 12 13  1  0  0  0  0
 12 11  1  0  0  0  0
 13 14  1  0  0  0  0
 14 15  1  0  0  0  0
 16 20  2  0  0  0  0
 17 18  2  0  0  0  0
 17 16  1  0  0  0  0
 18 19  1  0  0  0  0
 19 20  1  0  0  0  0
 21 22  2  0  0  0  0
 22 23  1  0  0  0  0
M  END
>  <minimizedAffinity>
-5.2114439

$$$$
