
 OpenBabel09122222393D

 23 26  0  0  0  0  0  0  0  0999 V2000
   10.6650    4.2380    2.9810 C   0  0  0  0  0  0  0  0  0  0  0  0
   10.7620    5.3890    3.7790 C   0  0  0  0  0  3  0  0  0  0  0  0
   10.7920    6.6780    3.2310 C   0  0  0  0  0  3  0  0  0  0  0  0
   10.7210    6.7900    1.8370 C   0  0  0  0  0  0  0  0  0  0  0  0
   10.6450    5.6710    1.0130 C   0  0  0  0  0  0  0  0  0  0  0  0
   10.6080    4.3880    1.5810 C   0  0  0  0  0  3  0  0  0  0  0  0
   10.6310    6.0400   -0.3070 N   0  0  0  0  0  0  0  0  0  0  0  0
   10.7530    7.3530   -0.3260 C   0  0  0  0  0  0  0  0  0  0  0  0
   10.6830    7.8610    0.9620 N   0  0  0  0  0  0  0  0  0  0  0  0
   10.5140    9.2600    1.3350 C   0  0  0  0  0  3  0  0  0  0  0  0
   11.7400   10.1420    1.0290 C   0  0  0  0  0  2  0  0  0  0  0  0
   11.5190   11.5780    1.5070 C   0  0  0  0  0  2  0  0  0  0  0  0
   10.2380   12.1690    0.9280 C   0  0  0  0  0  2  0  0  0  0  0  0
    9.0220   11.3020    1.2400 C   0  0  0  0  0  2  0  0  0  0  0  0
    9.2190    9.8610    0.7730 C   0  0  0  0  0  2  0  0  0  0  0  0
   10.9500    8.0740   -1.6210 C   0  0  0  0  0  0  0  0  0  0  0  0
   12.1150    8.5230   -2.2890 C   0  0  0  0  0  3  0  0  0  0  0  0
   11.6880    9.1010   -3.4630 C   0  0  0  0  0  3  0  0  0  0  0  0
   10.3380    9.0240   -3.5700 O   0  0  0  0  0  0  0  0  0  0  0  0
    9.8970    8.3840   -2.4570 C   0  0  0  0  0  3  0  0  0  0  0  0
    9.6040    2.1450    3.3780 O   0  0  0  0  0  0  0  0  0  0  0  0
   10.6290    2.8610    3.6140 C   0  0  0  0  0  0  0  0  0  0  0  0
   11.6210    2.5240    4.3320 O   0  0  0  0  0  1  0  0  0  0  0  0
  1 22  1  0  0  0  0
  1  2  1  0  0  0  0
  3  2  2  0  0  0  0
  4  3  1  0  0  0  0
  5  6  1  0  0  0  0
  5  4  2  0  0  0  0
  6  1  2  0  0  0  0
  7  5  1  0  0  0  0
  8  7  2  0  0  0  0
  8  9  1  0  0  0  0
  9 10  1  0  0  0  0
  9  4  1  0  0  0  0
 11 10  1  0  0  0  0
 11 12  1  0  0  0  0
 13 14  1  0  0  0  0
 13 12  1  0  0  0  0
 15 14  1  0  0  0  0
 15 10  1  0  0  0  0
 16  8  1  0  0  0  0
 17 16  1  0  0  0  0
 18 17  2  0  0  0  0
 19 18  1  0  0  0  0
 19 20  1  0  0  0  0
 20 16  2  0  0  0  0
 21 22  2  0  0  0  0
 22 23  1  0  0  0  0
M  END
>  <minimizedAffinity>
-5.04991245

$$$$
