
 OpenBabel09122222393D

 23 26  0  0  0  0  0  0  0  0999 V2000
    9.3100    9.3660    0.8030 C   0  0  0  0  0  0  0  0  0  0  0  0
    9.1550    8.9640    2.1400 C   0  0  0  0  0  3  0  0  0  0  0  0
    9.5340    7.6920    2.5860 C   0  0  0  0  0  3  0  0  0  0  0  0
   10.0820    6.8120    1.6450 C   0  0  0  0  0  0  0  0  0  0  0  0
   10.2310    7.1680    0.3070 C   0  0  0  0  0  0  0  0  0  0  0  0
    9.8530    8.4510   -0.1190 C   0  0  0  0  0  3  0  0  0  0  0  0
   10.7460    6.1260   -0.4180 N   0  0  0  0  0  0  0  0  0  0  0  0
   10.8680    5.1160    0.4210 C   0  0  0  0  0  0  0  0  0  0  0  0
   10.5940    5.5290    1.7140 N   0  0  0  0  0  0  0  0  0  0  0  0
   10.8700    4.7890    2.9400 C   0  0  0  0  0  3  0  0  0  0  0  0
   10.3010    3.3570    2.9490 C   0  0  0  0  0  2  0  0  0  0  0  0
   10.5680    2.6650    4.2860 C   0  0  0  0  0  2  0  0  0  0  0  0
   12.0520    2.6850    4.6390 C   0  0  0  0  0  2  0  0  0  0  0  0
   12.6140    4.1040    4.6410 C   0  0  0  0  0  2  0  0  0  0  0  0
   12.3580    4.8180    3.3150 C   0  0  0  0  0  2  0  0  0  0  0  0
   11.2410    3.7580   -0.0830 C   0  0  0  0  0  0  0  0  0  0  0  0
   10.4590    2.6560   -0.5060 C   0  0  0  0  0  3  0  0  0  0  0  0
   11.3480    1.6760   -0.8890 C   0  0  0  0  0  3  0  0  0  0  0  0
   12.6260    2.1090   -0.7450 O   0  0  0  0  0  0  0  0  0  0  0  0
   12.5540    3.3790   -0.2710 C   0  0  0  0  0  3  0  0  0  0  0  0
    8.3310   11.4930    1.2340 O   0  0  0  0  0  1  0  0  0  0  0  0
    8.8930   10.7550    0.3630 C   0  0  0  0  0  0  0  0  0  0  0  0
    9.1350   11.0820   -0.8410 O   0  0  0  0  0  0  0  0  0  0  0  0
  1  2  1  0  0  0  0
  2  3  2  0  0  0  0
  4  9  1  0  0  0  0
  4  3  1  0  0  0  0
  5  4  2  0  0  0  0
  6  5  1  0  0  0  0
  6  1  2  0  0  0  0
  7  5  1  0  0  0  0
  7  8  2  0  0  0  0
  8  9  1  0  0  0  0
  9 10  1  0  0  0  0
 10 11  1  0  0  0  0
 10 15  1  0  0  0  0
 11 12  1  0  0  0  0
 12 13  1  0  0  0  0
 13 14  1  0  0  0  0
 15 14  1  0  0  0  0
 16  8  1  0  0  0  0
 17 16  1  0  0  0  0
 18 19  1  0  0  0  0
 18 17  2  0  0  0  0
 19 20  1  0  0  0  0
 20 16  2  0  0  0  0
 22  1  1  0  0  0  0
 22 21  1  0  0  0  0
 23 22  2  0  0  0  0
M  END
>  <minimizedAffinity>
-5.22382402

$$$$
