
 OpenBabel09132204463D

 31 33  0  0  0  0  0  0  0  0999 V2000
    8.0500   -4.7690    1.1820 C   0  0  0  0  0  0  0  0  0  0  0  0
    7.4590   -4.2550    2.3390 C   0  0  0  0  0  3  0  0  0  0  0  0
    7.7690   -2.9610    2.7690 C   0  0  0  0  0  3  0  0  0  0  0  0
    8.6710   -2.1730    2.0470 C   0  0  0  0  0  0  0  0  0  0  0  0
    9.2630   -2.6880    0.8910 C   0  0  0  0  0  3  0  0  0  0  0  0
    8.9540   -3.9800    0.4630 C   0  0  0  0  0  3  0  0  0  0  0  0
    9.0120   -0.8240    2.5020 C   0  0  0  0  0  2  0  0  0  0  0  0
    9.8200   -0.5120    3.5350 C   0  0  0  0  0  0  0  0  0  0  0  0
   10.4480   -1.4960    4.2870 N   0  0  0  0  0  4  0  0  0  0  0  0
   10.2750   -1.8930    5.5950 C   0  0  0  0  0  0  0  0  0  0  0  0
   11.1250   -2.6130    6.1270 O   0  0  0  0  0  0  0  0  0  0  0  0
   11.2210   -1.9720    3.8460 H   0  0  0  0  0  0  0  0  0  0  0  0
    9.0530   -1.5790    6.3640 C   0  0  0  0  0  0  0  0  0  0  0  0
    7.9260   -2.3910    6.1920 C   0  0  0  0  0  3  0  0  0  0  0  0
    6.7330   -2.0780    6.8450 C   0  0  0  0  0  3  0  0  0  0  0  0
    6.6590   -0.9430    7.6550 C   0  0  0  0  0  3  0  0  0  0  0  0
    7.7740   -0.1180    7.8050 C   0  0  0  0  0  3  0  0  0  0  0  0
    8.9680   -0.4250    7.1490 C   0  0  0  0  0  3  0  0  0  0  0  0
   10.0210    1.0290    3.7040 C   0  0  0  0  0  0  0  0  0  0  0  0
   10.7320    1.3710    4.6950 O   0  0  0  0  0  1  0  0  0  0  0  0
    9.4080    1.7380    2.8550 O   0  0  0  0  0  0  0  0  0  0  0  0
    7.8500   -6.0370    0.6740 O   0  0  0  0  0  0  0  0  0  0  0  0
    6.0350   -7.4810    1.3390 C   0  0  0  0  0  0  0  0  0  0  0  0
    4.7150   -7.9030    1.1020 C   0  0  0  0  0  3  0  0  0  0  0  0
    3.9560   -7.3530    0.0640 C   0  0  0  0  0  3  0  0  0  0  0  0
    4.5040   -6.3740   -0.7610 C   0  0  0  0  0  3  0  0  0  0  0  0
    5.8080   -5.9360   -0.5430 C   0  0  0  0  0  3  0  0  0  0  0  0
    6.5560   -6.4710    0.5120 C   0  0  0  0  0  0  0  0  0  0  0  0
    6.1410   -9.2860    3.0920 C   0  0  0  0  0  1  0  0  0  0  0  0
    6.8560   -8.0850    2.4670 C   0  0  0  0  0  3  0  0  0  0  0  0
    8.2650   -8.4720    2.0050 C   0  0  0  0  0  1  0  0  0  0  0  0
  1  2  1  0  0  0  0
  2  3  2  0  0  0  0
  4  7  1  0  0  0  0
  4  3  1  0  0  0  0
  5  4  2  0  0  0  0
  6  5  1  0  0  0  0
  6  1  2  0  0  0  0
  7  8  1  0  0  0  0
  8 19  1  0  0  0  0
  8  9  2  0  0  0  0
  9 10  1  0  0  0  0
 10 11  2  0  0  0  0
 10 13  1  0  0  0  0
 12  9  1  0  0  0  0
 13 18  1  0  0  0  0
 14 13  2  0  0  0  0
 14 15  1  0  0  0  0
 15 16  2  0  0  0  0
 16 17  1  0  0  0  0
 18 17  2  0  0  0  0
 19 20  1  0  0  0  0
 21 19  2  0  0  0  0
 22  1  1  0  0  0  0
 23 30  1  0  0  0  0
 24 23  1  0  0  0  0
 25 24  2  0  0  0  0
 26 27  2  0  0  0  0
 26 25  1  0  0  0  0
 27 28  1  0  0  0  0
 28 22  1  0  0  0  0
 28 23  2  0  0  0  0
 30 29  1  0  0  0  0
 31 30  1  0  0  0  0
M  END
>  <minimizedAffinity>
-7.20406771

$$$$
