
 OpenBabel09132204463D

 31 33  0  0  0  0  0  0  0  0999 V2000
    8.5910   -4.4110    0.2680 C   0  0  0  0  0  0  0  0  0  0  0  0
    7.8780   -4.7920    1.4080 C   0  0  0  0  0  3  0  0  0  0  0  0
    6.7040   -5.5390    1.2820 C   0  0  0  0  0  3  0  0  0  0  0  0
    6.2330   -5.9090    0.0180 C   0  0  0  0  0  0  0  0  0  0  0  0
    6.9440   -5.5270   -1.1200 C   0  0  0  0  0  3  0  0  0  0  0  0
    8.1170   -4.7800   -0.9950 C   0  0  0  0  0  3  0  0  0  0  0  0
    4.9940   -6.6780   -0.1190 C   0  0  0  0  0  2  0  0  0  0  0  0
    4.6950   -7.8270    0.5200 C   0  0  0  0  0  0  0  0  0  0  0  0
    5.5740   -8.4030    1.4260 N   0  0  0  0  0  4  0  0  0  0  0  0
    5.6370   -8.3410    2.8010 C   0  0  0  0  0  0  0  0  0  0  0  0
    6.6590   -8.7210    3.3780 O   0  0  0  0  0  0  0  0  0  0  0  0
    6.3580   -8.9040    1.0340 H   0  0  0  0  0  0  0  0  0  0  0  0
    4.4840   -7.9330    3.6300 C   0  0  0  0  0  0  0  0  0  0  0  0
    4.2990   -6.5720    3.8960 C   0  0  0  0  0  3  0  0  0  0  0  0
    3.2650   -6.1590    4.7390 C   0  0  0  0  0  3  0  0  0  0  0  0
    2.4280   -7.1060    5.3300 C   0  0  0  0  0  3  0  0  0  0  0  0
    2.6280   -8.4650    5.0860 C   0  0  0  0  0  3  0  0  0  0  0  0
    3.6650   -8.8820    4.2490 C   0  0  0  0  0  3  0  0  0  0  0  0
    3.2570   -8.3460    0.1910 C   0  0  0  0  0  0  0  0  0  0  0  0
    2.9160   -9.4010    0.8040 O   0  0  0  0  0  1  0  0  0  0  0  0
    2.6370   -7.6700   -0.6800 O   0  0  0  0  0  0  0  0  0  0  0  0
    9.7430   -3.6500    0.2590 O   0  0  0  0  0  0  0  0  0  0  0  0
   10.1690   -1.3510   -0.3380 C   0  0  0  0  0  0  0  0  0  0  0  0
   10.0520    0.0030    0.0220 C   0  0  0  0  0  3  0  0  0  0  0  0
    9.4460    0.3800    1.2250 C   0  0  0  0  0  3  0  0  0  0  0  0
    8.9490   -0.5880    2.0930 C   0  0  0  0  0  3  0  0  0  0  0  0
    9.0490   -1.9350    1.7560 C   0  0  0  0  0  3  0  0  0  0  0  0
    9.6340   -2.3090    0.5400 C   0  0  0  0  0  0  0  0  0  0  0  0
   10.7700   -0.6220   -2.6720 C   0  0  0  0  0  1  0  0  0  0  0  0
   10.8320   -1.7560   -1.6450 C   0  0  0  0  0  3  0  0  0  0  0  0
   12.2770   -2.2190   -1.4340 C   0  0  0  0  0  1  0  0  0  0  0  0
  1  2  1  0  0  0  0
  3  2  2  0  0  0  0
  4  3  1  0  0  0  0
  5  6  1  0  0  0  0
  5  4  2  0  0  0  0
  6  1  2  0  0  0  0
  7  4  1  0  0  0  0
  7  8  1  0  0  0  0
  8  9  2  0  0  0  0
  9 10  1  0  0  0  0
 10 11  2  0  0  0  0
 10 13  1  0  0  0  0
 12  9  1  0  0  0  0
 13 14  2  0  0  0  0
 13 18  1  0  0  0  0
 14 15  1  0  0  0  0
 15 16  2  0  0  0  0
 17 16  1  0  0  0  0
 18 17  2  0  0  0  0
 19  8  1  0  0  0  0
 19 20  1  0  0  0  0
 21 19  2  0  0  0  0
 22  1  1  0  0  0  0
 22 28  1  0  0  0  0
 23 24  2  0  0  0  0
 23 28  1  0  0  0  0
 24 25  1  0  0  0  0
 25 26  2  0  0  0  0
 27 26  1  0  0  0  0
 28 27  2  0  0  0  0
 29 30  1  0  0  0  0
 30 31  1  0  0  0  0
 30 23  1  0  0  0  0
M  END
>  <minimizedAffinity>
-8.39141178

$$$$
