
 OpenBabel09132204463D

 31 33  0  0  0  0  0  0  0  0999 V2000
    9.3270   -3.1320    0.4550 C   0  0  0  0  0  0  0  0  0  0  0  0
    8.8680   -3.0940    1.7750 C   0  0  0  0  0  3  0  0  0  0  0  0
    7.9770   -4.0690    2.2350 C   0  0  0  0  0  3  0  0  0  0  0  0
    7.5370   -5.0850    1.3800 C   0  0  0  0  0  0  0  0  0  0  0  0
    7.9950   -5.1210    0.0610 C   0  0  0  0  0  3  0  0  0  0  0  0
    8.8840   -4.1480   -0.3980 C   0  0  0  0  0  3  0  0  0  0  0  0
    6.5910   -6.0980    1.8520 C   0  0  0  0  0  2  0  0  0  0  0  0
    5.3450   -5.8690    2.3150 C   0  0  0  0  0  0  0  0  0  0  0  0
    4.8150   -4.5870    2.3700 N   0  0  0  0  0  4  0  0  0  0  0  0
    4.3810   -3.8260    3.4320 C   0  0  0  0  0  0  0  0  0  0  0  0
    3.7070   -2.8140    3.2170 O   0  0  0  0  0  0  0  0  0  0  0  0
    4.6400   -4.1360    1.4840 H   0  0  0  0  0  0  0  0  0  0  0  0
    4.7770   -4.1100    4.8270 C   0  0  0  0  0  0  0  0  0  0  0  0
    3.8970   -4.8330    5.6390 C   0  0  0  0  0  3  0  0  0  0  0  0
    4.2060   -5.0520    6.9830 C   0  0  0  0  0  3  0  0  0  0  0  0
    5.3850   -4.5340    7.5200 C   0  0  0  0  0  3  0  0  0  0  0  0
    6.2500   -3.7900    6.7180 C   0  0  0  0  0  3  0  0  0  0  0  0
    5.9420   -3.5630    5.3750 C   0  0  0  0  0  3  0  0  0  0  0  0
    4.5810   -7.1860    2.6720 C   0  0  0  0  0  0  0  0  0  0  0  0
    4.8180   -7.6440    3.8290 O   0  0  0  0  0  1  0  0  0  0  0  0
    3.8600   -7.6480    1.7420 O   0  0  0  0  0  0  0  0  0  0  0  0
   10.1800   -2.2140   -0.1240 O   0  0  0  0  0  0  0  0  0  0  0  0
   10.6320    0.1120   -0.5780 C   0  0  0  0  0  0  0  0  0  0  0  0
   10.4470    1.4490   -0.1830 C   0  0  0  0  0  3  0  0  0  0  0  0
    9.6940    1.7700    0.9500 C   0  0  0  0  0  3  0  0  0  0  0  0
    9.1150    0.7610    1.7150 C   0  0  0  0  0  3  0  0  0  0  0  0
    9.2800   -0.5710    1.3420 C   0  0  0  0  0  3  0  0  0  0  0  0
   10.0130   -0.8870    0.1930 C   0  0  0  0  0  0  0  0  0  0  0  0
   10.5680   -0.3480   -3.0530 C   0  0  0  0  0  1  0  0  0  0  0  0
   11.4540   -0.2310   -1.8100 C   0  0  0  0  0  3  0  0  0  0  0  0
   12.5840    0.7770   -2.0410 C   0  0  0  0  0  1  0  0  0  0  0  0
  1  2  1  0  0  0  0
  2  3  2  0  0  0  0
  4  7  1  0  0  0  0
  4  3  1  0  0  0  0
  5  4  2  0  0  0  0
  6  5  1  0  0  0  0
  6  1  2  0  0  0  0
  7  8  1  0  0  0  0
  8  9  2  0  0  0  0
  8 19  1  0  0  0  0
  9 10  1  0  0  0  0
 10 13  1  0  0  0  0
 11 10  2  0  0  0  0
 12  9  1  0  0  0  0
 13 18  2  0  0  0  0
 13 14  1  0  0  0  0
 14 15  2  0  0  0  0
 15 16  1  0  0  0  0
 17 16  2  0  0  0  0
 18 17  1  0  0  0  0
 19 20  1  0  0  0  0
 21 19  2  0  0  0  0
 22 28  1  0  0  0  0
 22  1  1  0  0  0  0
 23 24  2  0  0  0  0
 23 28  1  0  0  0  0
 24 25  1  0  0  0  0
 25 26  2  0  0  0  0
 27 26  1  0  0  0  0
 28 27  2  0  0  0  0
 29 30  1  0  0  0  0
 30 23  1  0  0  0  0
 31 30  1  0  0  0  0
M  END
>  <minimizedAffinity>
-7.34465122

$$$$
