
 OpenBabel09132204463D

 31 33  0  0  0  0  0  0  0  0999 V2000
    5.9120   -6.0020    0.4960 C   0  0  0  0  0  0  0  0  0  0  0  0
    6.1950   -5.5460   -0.7950 C   0  0  0  0  0  3  0  0  0  0  0  0
    7.4870   -5.1220   -1.1190 C   0  0  0  0  0  3  0  0  0  0  0  0
    8.5030   -5.1490   -0.1590 C   0  0  0  0  0  0  0  0  0  0  0  0
    8.2190   -5.6030    1.1310 C   0  0  0  0  0  3  0  0  0  0  0  0
    6.9280   -6.0260    1.4560 C   0  0  0  0  0  3  0  0  0  0  0  0
    9.8530   -4.6900   -0.4890 C   0  0  0  0  0  2  0  0  0  0  0  0
   10.3460   -3.4520   -0.2830 C   0  0  0  0  0  0  0  0  0  0  0  0
    9.5820   -2.4560    0.3080 N   0  0  0  0  0  4  0  0  0  0  0  0
    9.6850   -1.0830    0.2670 C   0  0  0  0  0  0  0  0  0  0  0  0
    9.0520   -0.4030    1.0810 O   0  0  0  0  0  0  0  0  0  0  0  0
    8.8590   -2.7620    0.9430 H   0  0  0  0  0  0  0  0  0  0  0  0
   10.4450   -0.3750   -0.7840 C   0  0  0  0  0  0  0  0  0  0  0  0
   11.0840    0.8250   -0.4540 C   0  0  0  0  0  3  0  0  0  0  0  0
   11.7460    1.5580   -1.4410 C   0  0  0  0  0  3  0  0  0  0  0  0
   11.7530    1.1030   -2.7600 C   0  0  0  0  0  3  0  0  0  0  0  0
   11.0930   -0.0800   -3.0950 C   0  0  0  0  0  3  0  0  0  0  0  0
   10.4240   -0.8130   -2.1120 C   0  0  0  0  0  3  0  0  0  0  0  0
   11.8500   -3.3230   -0.6920 C   0  0  0  0  0  0  0  0  0  0  0  0
   12.1020   -3.6130   -1.9000 O   0  0  0  0  0  0  0  0  0  0  0  0
   12.6270   -2.9910    0.2480 O   0  0  0  0  0  1  0  0  0  0  0  0
    4.6740   -6.4170    0.9460 O   0  0  0  0  0  0  0  0  0  0  0  0
    4.0340   -7.1600    3.1500 C   0  0  0  0  0  0  0  0  0  0  0  0
    3.6560   -6.7970    4.4550 C   0  0  0  0  0  3  0  0  0  0  0  0
    3.5540   -5.4530    4.8290 C   0  0  0  0  0  3  0  0  0  0  0  0
    3.8230   -4.4460    3.9060 C   0  0  0  0  0  3  0  0  0  0  0  0
    4.2030   -4.7820    2.6090 C   0  0  0  0  0  3  0  0  0  0  0  0
    4.3280   -6.1270    2.2440 C   0  0  0  0  0  0  0  0  0  0  0  0
    5.5280   -9.1850    3.0640 C   0  0  0  0  0  1  0  0  0  0  0  0
    4.1400   -8.6230    2.7480 C   0  0  0  0  0  3  0  0  0  0  0  0
    3.0470   -9.4750    3.4010 C   0  0  0  0  0  1  0  0  0  0  0  0
  1 22  1  0  0  0  0
  1  6  1  0  0  0  0
  2  1  2  0  0  0  0
  3  2  1  0  0  0  0
  3  4  2  0  0  0  0
  4  5  1  0  0  0  0
  5  6  2  0  0  0  0
  7  8  1  0  0  0  0
  7  4  1  0  0  0  0
  8  9  2  0  0  0  0
  9 12  1  0  0  0  0
 10  9  1  0  0  0  0
 10 11  2  0  0  0  0
 13 14  1  0  0  0  0
 13 10  1  0  0  0  0
 15 14  2  0  0  0  0
 16 15  1  0  0  0  0
 17 16  2  0  0  0  0
 17 18  1  0  0  0  0
 18 13  2  0  0  0  0
 19  8  1  0  0  0  0
 19 21  1  0  0  0  0
 20 19  2  0  0  0  0
 22 28  1  0  0  0  0
 23 24  1  0  0  0  0
 24 25  2  0  0  0  0
 26 25  1  0  0  0  0
 27 26  2  0  0  0  0
 28 27  1  0  0  0  0
 28 23  2  0  0  0  0
 30 29  1  0  0  0  0
 30 23  1  0  0  0  0
 30 31  1  0  0  0  0
M  END
>  <minimizedAffinity>
-7.40850401

$$$$
