
 OpenBabel09132204463D

 31 33  0  0  0  0  0  0  0  0999 V2000
    3.0690   -5.9060    6.8470 C   0  0  0  0  0  0  0  0  0  0  0  0
    3.0040   -7.2690    7.1500 C   0  0  0  0  0  3  0  0  0  0  0  0
    2.8410   -8.2070    6.1270 C   0  0  0  0  0  3  0  0  0  0  0  0
    2.7400   -7.7910    4.7960 C   0  0  0  0  0  0  0  0  0  0  0  0
    2.8040   -6.4290    4.4930 C   0  0  0  0  0  3  0  0  0  0  0  0
    2.9670   -5.4920    5.5150 C   0  0  0  0  0  3  0  0  0  0  0  0
    2.5520   -8.7690    3.7220 C   0  0  0  0  0  2  0  0  0  0  0  0
    3.5290   -9.4250    3.0630 C   0  0  0  0  0  0  0  0  0  0  0  0
    4.8690   -9.2340    3.3740 N   0  0  0  0  0  4  0  0  0  0  0  0
    5.8770   -8.5830    2.6990 C   0  0  0  0  0  0  0  0  0  0  0  0
    7.0500   -8.7640    3.0390 O   0  0  0  0  0  0  0  0  0  0  0  0
    5.2090   -9.7050    4.2000 H   0  0  0  0  0  0  0  0  0  0  0  0
    5.6090   -7.5850    1.6410 C   0  0  0  0  0  0  0  0  0  0  0  0
    5.1620   -6.3140    2.0180 C   0  0  0  0  0  3  0  0  0  0  0  0
    4.8260   -5.3740    1.0420 C   0  0  0  0  0  3  0  0  0  0  0  0
    4.9200   -5.7100   -0.3090 C   0  0  0  0  0  3  0  0  0  0  0  0
    5.3400   -6.9860   -0.6860 C   0  0  0  0  0  3  0  0  0  0  0  0
    5.6700   -7.9310    0.2880 C   0  0  0  0  0  3  0  0  0  0  0  0
    2.9740  -10.4490    2.0200 C   0  0  0  0  0  0  0  0  0  0  0  0
    3.7860  -10.7710    1.1030 O   0  0  0  0  0  0  0  0  0  0  0  0
    1.7690  -10.7870    2.2010 O   0  0  0  0  0  1  0  0  0  0  0  0
    3.1980   -4.8850    7.7670 O   0  0  0  0  0  0  0  0  0  0  0  0
    3.9730   -2.6590    7.2540 C   0  0  0  0  0  0  0  0  0  0  0  0
    5.0770   -1.8060    7.0730 C   0  0  0  0  0  3  0  0  0  0  0  0
    6.3860   -2.2780    7.2140 C   0  0  0  0  0  3  0  0  0  0  0  0
    6.6180   -3.6140    7.5340 C   0  0  0  0  0  3  0  0  0  0  0  0
    5.5410   -4.4760    7.7230 C   0  0  0  0  0  3  0  0  0  0  0  0
    4.2320   -3.9940    7.6050 C   0  0  0  0  0  0  0  0  0  0  0  0
    2.3590   -0.8200    7.8460 C   0  0  0  0  0  1  0  0  0  0  0  0
    2.5530   -2.1400    7.0960 C   0  0  0  0  0  3  0  0  0  0  0  0
    2.1600   -1.9920    5.6230 C   0  0  0  0  0  1  0  0  0  0  0  0
  1  2  1  0  0  0  0
  1 22  1  0  0  0  0
  3  2  2  0  0  0  0
  4  3  1  0  0  0  0
  5  4  2  0  0  0  0
  5  6  1  0  0  0  0
  6  1  2  0  0  0  0
  7  4  1  0  0  0  0
  8  9  2  0  0  0  0
  8  7  1  0  0  0  0
  9 12  1  0  0  0  0
 10 11  2  0  0  0  0
 10  9  1  0  0  0  0
 13 14  1  0  0  0  0
 13 10  1  0  0  0  0
 15 14  2  0  0  0  0
 16 15  1  0  0  0  0
 17 16  2  0  0  0  0
 17 18  1  0  0  0  0
 18 13  2  0  0  0  0
 19 21  1  0  0  0  0
 19  8  1  0  0  0  0
 20 19  2  0  0  0  0
 23 28  1  0  0  0  0
 24 25  1  0  0  0  0
 24 23  2  0  0  0  0
 25 26  2  0  0  0  0
 26 27  1  0  0  0  0
 28 27  2  0  0  0  0
 28 22  1  0  0  0  0
 30 23  1  0  0  0  0
 30 29  1  0  0  0  0
 31 30  1  0  0  0  0
M  END
>  <minimizedAffinity>
-7.43053389

$$$$
