
 OpenBabel09132204463D

 31 33  0  0  0  0  0  0  0  0999 V2000
    5.6880   -5.7170    0.6140 C   0  0  0  0  0  0  0  0  0  0  0  0
    6.0640   -5.5750   -0.7250 C   0  0  0  0  0  3  0  0  0  0  0  0
    7.3780   -5.2260   -1.0510 C   0  0  0  0  0  3  0  0  0  0  0  0
    8.3240   -5.0150   -0.0430 C   0  0  0  0  0  0  0  0  0  0  0  0
    7.9480   -5.1550    1.2950 C   0  0  0  0  0  3  0  0  0  0  0  0
    6.6360   -5.5030    1.6200 C   0  0  0  0  0  3  0  0  0  0  0  0
    9.6970   -4.6330   -0.3780 C   0  0  0  0  0  2  0  0  0  0  0  0
   10.2550   -3.4210   -0.1880 C   0  0  0  0  0  0  0  0  0  0  0  0
    9.5450   -2.3780    0.3900 N   0  0  0  0  0  4  0  0  0  0  0  0
    9.6950   -1.0110    0.2980 C   0  0  0  0  0  0  0  0  0  0  0  0
    9.1120   -0.2820    1.1050 O   0  0  0  0  0  0  0  0  0  0  0  0
    8.8320   -2.6360    1.0560 H   0  0  0  0  0  0  0  0  0  0  0  0
   10.4480   -0.3680   -0.8000 C   0  0  0  0  0  0  0  0  0  0  0  0
   11.1380    0.8190   -0.5320 C   0  0  0  0  0  3  0  0  0  0  0  0
   11.7950    1.4930   -1.5630 C   0  0  0  0  0  3  0  0  0  0  0  0
   11.7460    0.9920   -2.8640 C   0  0  0  0  0  3  0  0  0  0  0  0
   11.0350   -0.1770   -3.1370 C   0  0  0  0  0  3  0  0  0  0  0  0
   10.3720   -0.8510   -2.1100 C   0  0  0  0  0  3  0  0  0  0  0  0
   11.7640   -3.3780   -0.5970 C   0  0  0  0  0  0  0  0  0  0  0  0
   12.0050   -3.7390   -1.7880 O   0  0  0  0  0  0  0  0  0  0  0  0
   12.5530   -3.0320    0.3280 O   0  0  0  0  0  1  0  0  0  0  0  0
    4.4200   -6.0260    1.0630 O   0  0  0  0  0  0  0  0  0  0  0  0
    3.9710   -6.7030    3.3350 C   0  0  0  0  0  0  0  0  0  0  0  0
    3.8850   -7.7630    4.2560 C   0  0  0  0  0  3  0  0  0  0  0  0
    4.1340   -9.0820    3.8640 C   0  0  0  0  0  3  0  0  0  0  0  0
    4.4780   -9.3680    2.5450 C   0  0  0  0  0  3  0  0  0  0  0  0
    4.5650   -8.3360    1.6140 C   0  0  0  0  0  3  0  0  0  0  0  0
    4.2920   -7.0200    2.0040 C   0  0  0  0  0  0  0  0  0  0  0  0
    2.4240   -5.1740    4.6030 C   0  0  0  0  0  1  0  0  0  0  0  0
    3.7030   -5.2700    3.7670 C   0  0  0  0  0  3  0  0  0  0  0  0
    4.8930   -4.6690    4.5220 C   0  0  0  0  0  1  0  0  0  0  0  0
  1 22  1  0  0  0  0
  1  6  1  0  0  0  0
  2  1  2  0  0  0  0
  3  2  1  0  0  0  0
  3  4  2  0  0  0  0
  4  5  1  0  0  0  0
  5  6  2  0  0  0  0
  7  8  1  0  0  0  0
  7  4  1  0  0  0  0
  8  9  2  0  0  0  0
  9 12  1  0  0  0  0
 10  9  1  0  0  0  0
 10 11  2  0  0  0  0
 13 14  1  0  0  0  0
 13 10  1  0  0  0  0
 15 14  2  0  0  0  0
 16 15  1  0  0  0  0
 17 16  2  0  0  0  0
 17 18  1  0  0  0  0
 18 13  2  0  0  0  0
 19  8  1  0  0  0  0
 19 21  1  0  0  0  0
 20 19  2  0  0  0  0
 22 28  1  0  0  0  0
 23 30  1  0  0  0  0
 23 24  1  0  0  0  0
 25 24  2  0  0  0  0
 26 25  1  0  0  0  0
 27 28  1  0  0  0  0
 27 26  2  0  0  0  0
 28 23  2  0  0  0  0
 30 31  1  0  0  0  0
 30 29  1  0  0  0  0
M  END
>  <minimizedAffinity>
-7.72223663

$$$$
