
 OpenBabel09122223453D

 31 33  0  0  0  0  0  0  0  0999 V2000
    8.5910   -4.4110    0.2680 C   0  0  0  0  0  0  0  0  0  0  0  0
    7.8780   -4.7920    1.4080 C   0  0  0  0  0  3  0  0  0  0  0  0
    6.7040   -5.5390    1.2820 C   0  0  0  0  0  3  0  0  0  0  0  0
    6.2330   -5.9090    0.0180 C   0  0  0  0  0  0  0  0  0  0  0  0
    6.9440   -5.5270   -1.1200 C   0  0  0  0  0  3  0  0  0  0  0  0
    8.1170   -4.7800   -0.9950 C   0  0  0  0  0  3  0  0  0  0  0  0
    4.9940   -6.6780   -0.1190 C   0  0  0  0  0  2  0  0  0  0  0  0
    4.6950   -7.8270    0.5200 C   0  0  0  0  0  0  0  0  0  0  0  0
    5.5740   -8.4030    1.4260 N   0  0  0  0  0  4  0  0  0  0  0  0
    5.6370   -8.3410    2.8010 C   0  0  0  0  0  0  0  0  0  0  0  0
    6.6590   -8.7210    3.3780 O   0  0  0  0  0  0  0  0  0  0  0  0
    6.3580   -8.9040    1.0340 H   0  0  0  0  0  0  0  0  0  0  0  0
    4.4840   -7.9330    3.6300 C   0  0  0  0  0  0  0  0  0  0  0  0
    4.2990   -6.5720    3.8960 C   0  0  0  0  0  3  0  0  0  0  0  0
    3.2650   -6.1590    4.7390 C   0  0  0  0  0  3  0  0  0  0  0  0
    2.4280   -7.1060    5.3300 C   0  0  0  0  0  3  0  0  0  0  0  0
    2.6280   -8.4650    5.0860 C   0  0  0  0  0  3  0  0  0  0  0  0
    3.6650   -8.8820    4.2490 C   0  0  0  0  0  3  0  0  0  0  0  0
    3.2570   -8.3460    0.1910 C   0  0  0  0  0  0  0  0  0  0  0  0
    2.9160   -9.4010    0.8040 O   0  0  0  0  0  1  0  0  0  0  0  0
    2.6370   -7.6700   -0.6800 O   0  0  0  0  0  0  0  0  0  0  0  0
    9.7430   -3.6500    0.2590 O   0  0  0  0  0  0  0  0  0  0  0  0
   10.1690   -1.3510   -0.3380 C   0  0  0  0  0  0  0  0  0  0  0  0
   10.0520    0.0030    0.0220 C   0  0  0  0  0  3  0  0  0  0  0  0
    9.4460    0.3800    1.2250 C   0  0  0  0  0  3  0  0  0  0  0  0
    8.9490   -0.5880    2.0930 C   0  0  0  0  0  3  0  0  0  0  0  0
    9.0490   -1.9350    1.7560 C   0  0  0  0  0  3  0  0  0  0  0  0
    9.6340   -2.3090    0.5400 C   0  0  0  0  0  0  0  0  0  0  0  0
   10.7700   -0.6220   -2.6720 C   0  0  0  0  0  1  0  0  0  0  0  0
   10.8320   -1.7560   -1.6450 C   0  0  0  0  0  3  0  0  0  0  0  0
   12.2770   -2.2190   -1.4340 C   0  0  0  0  0  1  0  0  0  0  0  0
  1  2  1  0  0  0  0
  3  2  2  0  0  0  0
  4  3  1  0  0  0  0
  5  6  1  0  0  0  0
  5  4  2  0  0  0  0
  6  1  2  0  0  0  0
  7  4  1  0  0  0  0
  7  8  1  0  0  0  0
  8  9  2  0  0  0  0
  9 10  1  0  0  0  0
 10 11  2  0  0  0  0
 10 13  1  0  0  0  0
 12  9  1  0  0  0  0
 13 14  2  0  0  0  0
 13 18  1  0  0  0  0
 14 15  1  0  0  0  0
 15 16  2  0  0  0  0
 17 16  1  0  0  0  0
 18 17  2  0  0  0  0
 19  8  1  0  0  0  0
 19 20  1  0  0  0  0
 21 19  2  0  0  0  0
 22  1  1  0  0  0  0
 22 28  1  0  0  0  0
 23 24  2  0  0  0  0
 23 28  1  0  0  0  0
 24 25  1  0  0  0  0
 25 26  2  0  0  0  0
 27 26  1  0  0  0  0
 28 27  2  0  0  0  0
 29 30  1  0  0  0  0
 30 31  1  0  0  0  0
 30 23  1  0  0  0  0
M  END
>  <minimizedAffinity>
-8.39141178

$$$$

 OpenBabel09122223453D

 31 33  0  0  0  0  0  0  0  0999 V2000
    8.8230   -4.2250    0.4480 C   0  0  0  0  0  0  0  0  0  0  0  0
    8.4440   -4.6680   -0.8230 C   0  0  0  0  0  3  0  0  0  0  0  0
    7.2530   -5.3820   -0.9890 C   0  0  0  0  0  3  0  0  0  0  0  0
    6.4350   -5.6590    0.1110 C   0  0  0  0  0  0  0  0  0  0  0  0
    6.8150   -5.2180    1.3800 C   0  0  0  0  0  3  0  0  0  0  0  0
    8.0040   -4.5050    1.5460 C   0  0  0  0  0  3  0  0  0  0  0  0
    5.1960   -6.4210   -0.0560 C   0  0  0  0  0  2  0  0  0  0  0  0
    4.9270   -7.6300    0.4760 C   0  0  0  0  0  0  0  0  0  0  0  0
    5.8440   -8.2860    1.2860 N   0  0  0  0  0  4  0  0  0  0  0  0
    5.9450   -8.3800    2.6570 C   0  0  0  0  0  0  0  0  0  0  0  0
    6.9910   -8.8000    3.1600 O   0  0  0  0  0  0  0  0  0  0  0  0
    6.6250   -8.7220    0.8190 H   0  0  0  0  0  0  0  0  0  0  0  0
    4.8090   -8.0950    3.5580 C   0  0  0  0  0  0  0  0  0  0  0  0
    4.1120   -9.1710    4.1190 C   0  0  0  0  0  3  0  0  0  0  0  0
    2.9880   -8.9380    4.9120 C   0  0  0  0  0  3  0  0  0  0  0  0
    2.5480   -7.6320    5.1310 C   0  0  0  0  0  3  0  0  0  0  0  0
    3.2260   -6.5600    4.5510 C   0  0  0  0  0  3  0  0  0  0  0  0
    4.3470   -6.7890    3.7510 C   0  0  0  0  0  3  0  0  0  0  0  0
    3.4800   -8.1260    0.1520 C   0  0  0  0  0  0  0  0  0  0  0  0
    3.1250   -9.1770    0.7650 O   0  0  0  0  0  1  0  0  0  0  0  0
    2.8680   -7.4400   -0.7160 O   0  0  0  0  0  0  0  0  0  0  0  0
    9.9850   -3.5410    0.7450 O   0  0  0  0  0  0  0  0  0  0  0  0
    9.8780   -1.1720    0.3020 C   0  0  0  0  0  0  0  0  0  0  0  0
   10.2270   -0.1150   -0.5580 C   0  0  0  0  0  3  0  0  0  0  0  0
   10.9650   -0.3460   -1.7230 C   0  0  0  0  0  3  0  0  0  0  0  0
   11.3660   -1.6380   -2.0540 C   0  0  0  0  0  3  0  0  0  0  0  0
   11.0360   -2.6990   -1.2160 C   0  0  0  0  0  3  0  0  0  0  0  0
   10.3180   -2.4620   -0.0380 C   0  0  0  0  0  0  0  0  0  0  0  0
    9.7280   -1.5700    2.7840 C   0  0  0  0  0  1  0  0  0  0  0  0
    9.0720   -0.9150    1.5650 C   0  0  0  0  0  3  0  0  0  0  0  0
    8.8490    0.5810    1.8060 C   0  0  0  0  0  1  0  0  0  0  0  0
  1 22  1  0  0  0  0
  1  6  1  0  0  0  0
  2  1  2  0  0  0  0
  3  2  1  0  0  0  0
  3  4  2  0  0  0  0
  4  5  1  0  0  0  0
  5  6  2  0  0  0  0
  7  4  1  0  0  0  0
  7  8  1  0  0  0  0
  8  9  2  0  0  0  0
  9 10  1  0  0  0  0
 10 11  2  0  0  0  0
 10 13  1  0  0  0  0
 12  9  1  0  0  0  0
 13 18  2  0  0  0  0
 13 14  1  0  0  0  0
 14 15  2  0  0  0  0
 15 16  1  0  0  0  0
 17 16  2  0  0  0  0
 18 17  1  0  0  0  0
 19  8  1  0  0  0  0
 19 20  1  0  0  0  0
 21 19  2  0  0  0  0
 23 30  1  0  0  0  0
 24 23  2  0  0  0  0
 25 24  1  0  0  0  0
 26 25  2  0  0  0  0
 26 27  1  0  0  0  0
 27 28  2  0  0  0  0
 28 23  1  0  0  0  0
 28 22  1  0  0  0  0
 30 31  1  0  0  0  0
 30 29  1  0  0  0  0
M  END
>  <minimizedAffinity>
-7.81212234

$$$$

 OpenBabel09122223453D

 31 33  0  0  0  0  0  0  0  0999 V2000
    5.6880   -5.7170    0.6140 C   0  0  0  0  0  0  0  0  0  0  0  0
    6.0640   -5.5750   -0.7250 C   0  0  0  0  0  3  0  0  0  0  0  0
    7.3780   -5.2260   -1.0510 C   0  0  0  0  0  3  0  0  0  0  0  0
    8.3240   -5.0150   -0.0430 C   0  0  0  0  0  0  0  0  0  0  0  0
    7.9480   -5.1550    1.2950 C   0  0  0  0  0  3  0  0  0  0  0  0
    6.6360   -5.5030    1.6200 C   0  0  0  0  0  3  0  0  0  0  0  0
    9.6970   -4.6330   -0.3780 C   0  0  0  0  0  2  0  0  0  0  0  0
   10.2550   -3.4210   -0.1880 C   0  0  0  0  0  0  0  0  0  0  0  0
    9.5450   -2.3780    0.3900 N   0  0  0  0  0  4  0  0  0  0  0  0
    9.6950   -1.0110    0.2980 C   0  0  0  0  0  0  0  0  0  0  0  0
    9.1120   -0.2820    1.1050 O   0  0  0  0  0  0  0  0  0  0  0  0
    8.8320   -2.6360    1.0560 H   0  0  0  0  0  0  0  0  0  0  0  0
   10.4480   -0.3680   -0.8000 C   0  0  0  0  0  0  0  0  0  0  0  0
   11.1380    0.8190   -0.5320 C   0  0  0  0  0  3  0  0  0  0  0  0
   11.7950    1.4930   -1.5630 C   0  0  0  0  0  3  0  0  0  0  0  0
   11.7460    0.9920   -2.8640 C   0  0  0  0  0  3  0  0  0  0  0  0
   11.0350   -0.1770   -3.1370 C   0  0  0  0  0  3  0  0  0  0  0  0
   10.3720   -0.8510   -2.1100 C   0  0  0  0  0  3  0  0  0  0  0  0
   11.7640   -3.3780   -0.5970 C   0  0  0  0  0  0  0  0  0  0  0  0
   12.0050   -3.7390   -1.7880 O   0  0  0  0  0  0  0  0  0  0  0  0
   12.5530   -3.0320    0.3280 O   0  0  0  0  0  1  0  0  0  0  0  0
    4.4200   -6.0260    1.0630 O   0  0  0  0  0  0  0  0  0  0  0  0
    3.9710   -6.7030    3.3350 C   0  0  0  0  0  0  0  0  0  0  0  0
    3.8850   -7.7630    4.2560 C   0  0  0  0  0  3  0  0  0  0  0  0
    4.1340   -9.0820    3.8640 C   0  0  0  0  0  3  0  0  0  0  0  0
    4.4780   -9.3680    2.5450 C   0  0  0  0  0  3  0  0  0  0  0  0
    4.5650   -8.3360    1.6140 C   0  0  0  0  0  3  0  0  0  0  0  0
    4.2920   -7.0200    2.0040 C   0  0  0  0  0  0  0  0  0  0  0  0
    2.4240   -5.1740    4.6030 C   0  0  0  0  0  1  0  0  0  0  0  0
    3.7030   -5.2700    3.7670 C   0  0  0  0  0  3  0  0  0  0  0  0
    4.8930   -4.6690    4.5220 C   0  0  0  0  0  1  0  0  0  0  0  0
  1 22  1  0  0  0  0
  1  6  1  0  0  0  0
  2  1  2  0  0  0  0
  3  2  1  0  0  0  0
  3  4  2  0  0  0  0
  4  5  1  0  0  0  0
  5  6  2  0  0  0  0
  7  8  1  0  0  0  0
  7  4  1  0  0  0  0
  8  9  2  0  0  0  0
  9 12  1  0  0  0  0
 10  9  1  0  0  0  0
 10 11  2  0  0  0  0
 13 14  1  0  0  0  0
 13 10  1  0  0  0  0
 15 14  2  0  0  0  0
 16 15  1  0  0  0  0
 17 16  2  0  0  0  0
 17 18  1  0  0  0  0
 18 13  2  0  0  0  0
 19  8  1  0  0  0  0
 19 21  1  0  0  0  0
 20 19  2  0  0  0  0
 22 28  1  0  0  0  0
 23 30  1  0  0  0  0
 23 24  1  0  0  0  0
 25 24  2  0  0  0  0
 26 25  1  0  0  0  0
 27 28  1  0  0  0  0
 27 26  2  0  0  0  0
 28 23  2  0  0  0  0
 30 31  1  0  0  0  0
 30 29  1  0  0  0  0
M  END
>  <minimizedAffinity>
-7.72223663

$$$$

 OpenBabel09122223453D

 31 33  0  0  0  0  0  0  0  0999 V2000
    7.4410   -4.6900    1.5830 C   0  0  0  0  0  0  0  0  0  0  0  0
    7.5800   -5.6270    0.5540 C   0  0  0  0  0  3  0  0  0  0  0  0
    6.5200   -6.4810    0.2370 C   0  0  0  0  0  3  0  0  0  0  0  0
    5.3160   -6.4070    0.9440 C   0  0  0  0  0  0  0  0  0  0  0  0
    5.1780   -5.4720    1.9730 C   0  0  0  0  0  3  0  0  0  0  0  0
    6.2370   -4.6200    2.2900 C   0  0  0  0  0  3  0  0  0  0  0  0
    4.2090   -7.3110    0.6260 C   0  0  0  0  0  2  0  0  0  0  0  0
    4.0050   -8.5360    1.1520 C   0  0  0  0  0  0  0  0  0  0  0  0
    4.8630   -9.0690    2.1040 N   0  0  0  0  0  4  0  0  0  0  0  0
    4.8730   -8.9710    3.4780 C   0  0  0  0  0  0  0  0  0  0  0  0
    5.8820   -9.3130    4.1020 O   0  0  0  0  0  0  0  0  0  0  0  0
    5.6720   -9.5610    1.7540 H   0  0  0  0  0  0  0  0  0  0  0  0
    3.6810   -8.5700    4.2540 C   0  0  0  0  0  0  0  0  0  0  0  0
    2.6580   -9.5070    4.4420 C   0  0  0  0  0  3  0  0  0  0  0  0
    1.4860   -9.1380    5.1040 C   0  0  0  0  0  3  0  0  0  0  0  0
    1.3270   -7.8290    5.5610 C   0  0  0  0  0  3  0  0  0  0  0  0
    2.3350   -6.8880    5.3510 C   0  0  0  0  0  3  0  0  0  0  0  0
    3.5060   -7.2510    4.6840 C   0  0  0  0  0  3  0  0  0  0  0  0
    2.6860   -9.2020    0.6410 C   0  0  0  0  0  0  0  0  0  0  0  0
    1.9410   -8.4490   -0.0540 O   0  0  0  0  0  0  0  0  0  0  0  0
    2.5110  -10.3930    1.0270 O   0  0  0  0  0  1  0  0  0  0  0  0
    8.4210   -3.8160    2.0090 O   0  0  0  0  0  0  0  0  0  0  0  0
    9.4160   -1.8240    1.0800 C   0  0  0  0  0  0  0  0  0  0  0  0
   10.2070   -1.2650    0.0610 C   0  0  0  0  0  3  0  0  0  0  0  0
   10.7470   -2.0620   -0.9530 C   0  0  0  0  0  3  0  0  0  0  0  0
   10.5040   -3.4330   -0.9710 C   0  0  0  0  0  3  0  0  0  0  0  0
    9.7280   -4.0110    0.0310 C   0  0  0  0  0  3  0  0  0  0  0  0
    9.2090   -3.2140    1.0580 C   0  0  0  0  0  0  0  0  0  0  0  0
    9.4710   -1.2580    3.5340 C   0  0  0  0  0  1  0  0  0  0  0  0
    8.8280   -0.9520    2.1780 C   0  0  0  0  0  3  0  0  0  0  0  0
    8.9440    0.5390    1.8470 C   0  0  0  0  0  1  0  0  0  0  0  0
  1 22  1  0  0  0  0
  1  6  1  0  0  0  0
  2  1  2  0  0  0  0
  3  2  1  0  0  0  0
  3  4  2  0  0  0  0
  4  5  1  0  0  0  0
  5  6  2  0  0  0  0
  7  4  1  0  0  0  0
  7  8  1  0  0  0  0
  8  9  2  3  0  0  0
  9 10  1  0  0  0  0
 10 11  2  0  0  0  0
 10 13  1  0  0  0  0
 12  9  1  0  0  0  0
 13 14  2  0  0  0  0
 13 18  1  0  0  0  0
 14 15  1  0  0  0  0
 15 16  2  0  0  0  0
 17 16  1  0  0  0  0
 18 17  2  0  0  0  0
 19 21  1  0  0  0  0
 19  8  1  0  0  0  0
 20 19  2  0  0  0  0
 23 30  1  0  0  0  0
 24 23  2  0  0  0  0
 25 24  1  0  0  0  0
 26 25  2  0  0  0  0
 26 27  1  0  0  0  0
 27 28  2  0  0  0  0
 28 23  1  0  0  0  0
 28 22  1  0  0  0  0
 30 29  1  0  0  0  0
 31 30  1  0  0  0  0
M  END
>  <minimizedAffinity>
-7.46311903

$$$$

 OpenBabel09122223453D

 31 33  0  0  0  0  0  0  0  0999 V2000
    3.0690   -5.9060    6.8470 C   0  0  0  0  0  0  0  0  0  0  0  0
    3.0040   -7.2690    7.1500 C   0  0  0  0  0  3  0  0  0  0  0  0
    2.8410   -8.2070    6.1270 C   0  0  0  0  0  3  0  0  0  0  0  0
    2.7400   -7.7910    4.7960 C   0  0  0  0  0  0  0  0  0  0  0  0
    2.8040   -6.4290    4.4930 C   0  0  0  0  0  3  0  0  0  0  0  0
    2.9670   -5.4920    5.5150 C   0  0  0  0  0  3  0  0  0  0  0  0
    2.5520   -8.7690    3.7220 C   0  0  0  0  0  2  0  0  0  0  0  0
    3.5290   -9.4250    3.0630 C   0  0  0  0  0  0  0  0  0  0  0  0
    4.8690   -9.2340    3.3740 N   0  0  0  0  0  4  0  0  0  0  0  0
    5.8770   -8.5830    2.6990 C   0  0  0  0  0  0  0  0  0  0  0  0
    7.0500   -8.7640    3.0390 O   0  0  0  0  0  0  0  0  0  0  0  0
    5.2090   -9.7050    4.2000 H   0  0  0  0  0  0  0  0  0  0  0  0
    5.6090   -7.5850    1.6410 C   0  0  0  0  0  0  0  0  0  0  0  0
    5.1620   -6.3140    2.0180 C   0  0  0  0  0  3  0  0  0  0  0  0
    4.8260   -5.3740    1.0420 C   0  0  0  0  0  3  0  0  0  0  0  0
    4.9200   -5.7100   -0.3090 C   0  0  0  0  0  3  0  0  0  0  0  0
    5.3400   -6.9860   -0.6860 C   0  0  0  0  0  3  0  0  0  0  0  0
    5.6700   -7.9310    0.2880 C   0  0  0  0  0  3  0  0  0  0  0  0
    2.9740  -10.4490    2.0200 C   0  0  0  0  0  0  0  0  0  0  0  0
    3.7860  -10.7710    1.1030 O   0  0  0  0  0  0  0  0  0  0  0  0
    1.7690  -10.7870    2.2010 O   0  0  0  0  0  1  0  0  0  0  0  0
    3.1980   -4.8850    7.7670 O   0  0  0  0  0  0  0  0  0  0  0  0
    3.9730   -2.6590    7.2540 C   0  0  0  0  0  0  0  0  0  0  0  0
    5.0770   -1.8060    7.0730 C   0  0  0  0  0  3  0  0  0  0  0  0
    6.3860   -2.2780    7.2140 C   0  0  0  0  0  3  0  0  0  0  0  0
    6.6180   -3.6140    7.5340 C   0  0  0  0  0  3  0  0  0  0  0  0
    5.5410   -4.4760    7.7230 C   0  0  0  0  0  3  0  0  0  0  0  0
    4.2320   -3.9940    7.6050 C   0  0  0  0  0  0  0  0  0  0  0  0
    2.3590   -0.8200    7.8460 C   0  0  0  0  0  1  0  0  0  0  0  0
    2.5530   -2.1400    7.0960 C   0  0  0  0  0  3  0  0  0  0  0  0
    2.1600   -1.9920    5.6230 C   0  0  0  0  0  1  0  0  0  0  0  0
  1  2  1  0  0  0  0
  1 22  1  0  0  0  0
  3  2  2  0  0  0  0
  4  3  1  0  0  0  0
  5  4  2  0  0  0  0
  5  6  1  0  0  0  0
  6  1  2  0  0  0  0
  7  4  1  0  0  0  0
  8  9  2  0  0  0  0
  8  7  1  0  0  0  0
  9 12  1  0  0  0  0
 10 11  2  0  0  0  0
 10  9  1  0  0  0  0
 13 14  1  0  0  0  0
 13 10  1  0  0  0  0
 15 14  2  0  0  0  0
 16 15  1  0  0  0  0
 17 16  2  0  0  0  0
 17 18  1  0  0  0  0
 18 13  2  0  0  0  0
 19 21  1  0  0  0  0
 19  8  1  0  0  0  0
 20 19  2  0  0  0  0
 23 28  1  0  0  0  0
 24 25  1  0  0  0  0
 24 23  2  0  0  0  0
 25 26  2  0  0  0  0
 26 27  1  0  0  0  0
 28 27  2  0  0  0  0
 28 22  1  0  0  0  0
 30 23  1  0  0  0  0
 30 29  1  0  0  0  0
 31 30  1  0  0  0  0
M  END
>  <minimizedAffinity>
-7.43053389

$$$$

 OpenBabel09122223453D

 31 33  0  0  0  0  0  0  0  0999 V2000
    5.9120   -6.0020    0.4960 C   0  0  0  0  0  0  0  0  0  0  0  0
    6.1950   -5.5460   -0.7950 C   0  0  0  0  0  3  0  0  0  0  0  0
    7.4870   -5.1220   -1.1190 C   0  0  0  0  0  3  0  0  0  0  0  0
    8.5030   -5.1490   -0.1590 C   0  0  0  0  0  0  0  0  0  0  0  0
    8.2190   -5.6030    1.1310 C   0  0  0  0  0  3  0  0  0  0  0  0
    6.9280   -6.0260    1.4560 C   0  0  0  0  0  3  0  0  0  0  0  0
    9.8530   -4.6900   -0.4890 C   0  0  0  0  0  2  0  0  0  0  0  0
   10.3460   -3.4520   -0.2830 C   0  0  0  0  0  0  0  0  0  0  0  0
    9.5820   -2.4560    0.3080 N   0  0  0  0  0  4  0  0  0  0  0  0
    9.6850   -1.0830    0.2670 C   0  0  0  0  0  0  0  0  0  0  0  0
    9.0520   -0.4030    1.0810 O   0  0  0  0  0  0  0  0  0  0  0  0
    8.8590   -2.7620    0.9430 H   0  0  0  0  0  0  0  0  0  0  0  0
   10.4450   -0.3750   -0.7840 C   0  0  0  0  0  0  0  0  0  0  0  0
   11.0840    0.8250   -0.4540 C   0  0  0  0  0  3  0  0  0  0  0  0
   11.7460    1.5580   -1.4410 C   0  0  0  0  0  3  0  0  0  0  0  0
   11.7530    1.1030   -2.7600 C   0  0  0  0  0  3  0  0  0  0  0  0
   11.0930   -0.0800   -3.0950 C   0  0  0  0  0  3  0  0  0  0  0  0
   10.4240   -0.8130   -2.1120 C   0  0  0  0  0  3  0  0  0  0  0  0
   11.8500   -3.3230   -0.6920 C   0  0  0  0  0  0  0  0  0  0  0  0
   12.1020   -3.6130   -1.9000 O   0  0  0  0  0  0  0  0  0  0  0  0
   12.6270   -2.9910    0.2480 O   0  0  0  0  0  1  0  0  0  0  0  0
    4.6740   -6.4170    0.9460 O   0  0  0  0  0  0  0  0  0  0  0  0
    4.0340   -7.1600    3.1500 C   0  0  0  0  0  0  0  0  0  0  0  0
    3.6560   -6.7970    4.4550 C   0  0  0  0  0  3  0  0  0  0  0  0
    3.5540   -5.4530    4.8290 C   0  0  0  0  0  3  0  0  0  0  0  0
    3.8230   -4.4460    3.9060 C   0  0  0  0  0  3  0  0  0  0  0  0
    4.2030   -4.7820    2.6090 C   0  0  0  0  0  3  0  0  0  0  0  0
    4.3280   -6.1270    2.2440 C   0  0  0  0  0  0  0  0  0  0  0  0
    5.5280   -9.1850    3.0640 C   0  0  0  0  0  1  0  0  0  0  0  0
    4.1400   -8.6230    2.7480 C   0  0  0  0  0  3  0  0  0  0  0  0
    3.0470   -9.4750    3.4010 C   0  0  0  0  0  1  0  0  0  0  0  0
  1 22  1  0  0  0  0
  1  6  1  0  0  0  0
  2  1  2  0  0  0  0
  3  2  1  0  0  0  0
  3  4  2  0  0  0  0
  4  5  1  0  0  0  0
  5  6  2  0  0  0  0
  7  8  1  0  0  0  0
  7  4  1  0  0  0  0
  8  9  2  0  0  0  0
  9 12  1  0  0  0  0
 10  9  1  0  0  0  0
 10 11  2  0  0  0  0
 13 14  1  0  0  0  0
 13 10  1  0  0  0  0
 15 14  2  0  0  0  0
 16 15  1  0  0  0  0
 17 16  2  0  0  0  0
 17 18  1  0  0  0  0
 18 13  2  0  0  0  0
 19  8  1  0  0  0  0
 19 21  1  0  0  0  0
 20 19  2  0  0  0  0
 22 28  1  0  0  0  0
 23 24  1  0  0  0  0
 24 25  2  0  0  0  0
 26 25  1  0  0  0  0
 27 26  2  0  0  0  0
 28 27  1  0  0  0  0
 28 23  2  0  0  0  0
 30 29  1  0  0  0  0
 30 23  1  0  0  0  0
 30 31  1  0  0  0  0
M  END
>  <minimizedAffinity>
-7.40850401

$$$$

 OpenBabel09122223453D

 31 33  0  0  0  0  0  0  0  0999 V2000
    9.3270   -3.1320    0.4550 C   0  0  0  0  0  0  0  0  0  0  0  0
    8.8680   -3.0940    1.7750 C   0  0  0  0  0  3  0  0  0  0  0  0
    7.9770   -4.0690    2.2350 C   0  0  0  0  0  3  0  0  0  0  0  0
    7.5370   -5.0850    1.3800 C   0  0  0  0  0  0  0  0  0  0  0  0
    7.9950   -5.1210    0.0610 C   0  0  0  0  0  3  0  0  0  0  0  0
    8.8840   -4.1480   -0.3980 C   0  0  0  0  0  3  0  0  0  0  0  0
    6.5910   -6.0980    1.8520 C   0  0  0  0  0  2  0  0  0  0  0  0
    5.3450   -5.8690    2.3150 C   0  0  0  0  0  0  0  0  0  0  0  0
    4.8150   -4.5870    2.3700 N   0  0  0  0  0  4  0  0  0  0  0  0
    4.3810   -3.8260    3.4320 C   0  0  0  0  0  0  0  0  0  0  0  0
    3.7070   -2.8140    3.2170 O   0  0  0  0  0  0  0  0  0  0  0  0
    4.6400   -4.1360    1.4840 H   0  0  0  0  0  0  0  0  0  0  0  0
    4.7770   -4.1100    4.8270 C   0  0  0  0  0  0  0  0  0  0  0  0
    3.8970   -4.8330    5.6390 C   0  0  0  0  0  3  0  0  0  0  0  0
    4.2060   -5.0520    6.9830 C   0  0  0  0  0  3  0  0  0  0  0  0
    5.3850   -4.5340    7.5200 C   0  0  0  0  0  3  0  0  0  0  0  0
    6.2500   -3.7900    6.7180 C   0  0  0  0  0  3  0  0  0  0  0  0
    5.9420   -3.5630    5.3750 C   0  0  0  0  0  3  0  0  0  0  0  0
    4.5810   -7.1860    2.6720 C   0  0  0  0  0  0  0  0  0  0  0  0
    4.8180   -7.6440    3.8290 O   0  0  0  0  0  1  0  0  0  0  0  0
    3.8600   -7.6480    1.7420 O   0  0  0  0  0  0  0  0  0  0  0  0
   10.1800   -2.2140   -0.1240 O   0  0  0  0  0  0  0  0  0  0  0  0
   10.6320    0.1120   -0.5780 C   0  0  0  0  0  0  0  0  0  0  0  0
   10.4470    1.4490   -0.1830 C   0  0  0  0  0  3  0  0  0  0  0  0
    9.6940    1.7700    0.9500 C   0  0  0  0  0  3  0  0  0  0  0  0
    9.1150    0.7610    1.7150 C   0  0  0  0  0  3  0  0  0  0  0  0
    9.2800   -0.5710    1.3420 C   0  0  0  0  0  3  0  0  0  0  0  0
   10.0130   -0.8870    0.1930 C   0  0  0  0  0  0  0  0  0  0  0  0
   10.5680   -0.3480   -3.0530 C   0  0  0  0  0  1  0  0  0  0  0  0
   11.4540   -0.2310   -1.8100 C   0  0  0  0  0  3  0  0  0  0  0  0
   12.5840    0.7770   -2.0410 C   0  0  0  0  0  1  0  0  0  0  0  0
  1  2  1  0  0  0  0
  2  3  2  0  0  0  0
  4  7  1  0  0  0  0
  4  3  1  0  0  0  0
  5  4  2  0  0  0  0
  6  5  1  0  0  0  0
  6  1  2  0  0  0  0
  7  8  1  0  0  0  0
  8  9  2  0  0  0  0
  8 19  1  0  0  0  0
  9 10  1  0  0  0  0
 10 13  1  0  0  0  0
 11 10  2  0  0  0  0
 12  9  1  0  0  0  0
 13 18  2  0  0  0  0
 13 14  1  0  0  0  0
 14 15  2  0  0  0  0
 15 16  1  0  0  0  0
 17 16  2  0  0  0  0
 18 17  1  0  0  0  0
 19 20  1  0  0  0  0
 21 19  2  0  0  0  0
 22 28  1  0  0  0  0
 22  1  1  0  0  0  0
 23 24  2  0  0  0  0
 23 28  1  0  0  0  0
 24 25  1  0  0  0  0
 25 26  2  0  0  0  0
 27 26  1  0  0  0  0
 28 27  2  0  0  0  0
 29 30  1  0  0  0  0
 30 23  1  0  0  0  0
 31 30  1  0  0  0  0
M  END
>  <minimizedAffinity>
-7.34465122

$$$$

 OpenBabel09122223453D

 31 33  0  0  0  0  0  0  0  0999 V2000
    3.7910   -5.5440    6.8380 C   0  0  0  0  0  0  0  0  0  0  0  0
    3.6080   -5.2120    5.4920 C   0  0  0  0  0  3  0  0  0  0  0  0
    3.2160   -6.1920    4.5770 C   0  0  0  0  0  3  0  0  0  0  0  0
    3.0050   -7.5090    4.9970 C   0  0  0  0  0  0  0  0  0  0  0  0
    3.1890   -7.8410    6.3410 C   0  0  0  0  0  3  0  0  0  0  0  0
    3.5810   -6.8620    7.2560 C   0  0  0  0  0  3  0  0  0  0  0  0
    2.6100   -8.5430    4.0380 C   0  0  0  0  0  2  0  0  0  0  0  0
    3.4430   -9.3430    3.3420 C   0  0  0  0  0  0  0  0  0  0  0  0
    4.8210   -9.2650    3.4940 N   0  0  0  0  0  4  0  0  0  0  0  0
    5.7950   -8.7040    2.6980 C   0  0  0  0  0  0  0  0  0  0  0  0
    6.9800   -8.9820    2.9050 O   0  0  0  0  0  0  0  0  0  0  0  0
    5.2140   -9.7580    4.2830 H   0  0  0  0  0  0  0  0  0  0  0  0
    5.4910   -7.6930    1.6640 C   0  0  0  0  0  0  0  0  0  0  0  0
    5.2470   -6.3760    2.0660 C   0  0  0  0  0  3  0  0  0  0  0  0
    4.8820   -5.4140    1.1230 C   0  0  0  0  0  3  0  0  0  0  0  0
    4.7420   -5.7710   -0.2180 C   0  0  0  0  0  3  0  0  0  0  0  0
    4.9600   -7.0900   -0.6170 C   0  0  0  0  0  3  0  0  0  0  0  0
    5.3190   -8.0570    0.3250 C   0  0  0  0  0  3  0  0  0  0  0  0
    2.6840  -10.3830    2.4560 C   0  0  0  0  0  0  0  0  0  0  0  0
    3.3220  -10.7870    1.4390 O   0  0  0  0  0  0  0  0  0  0  0  0
    1.5110  -10.6530    2.8440 O   0  0  0  0  0  1  0  0  0  0  0  0
    4.2040   -4.6760    7.8290 O   0  0  0  0  0  0  0  0  0  0  0  0
    4.8890   -2.3860    7.5060 C   0  0  0  0  0  0  0  0  0  0  0  0
    4.4970   -1.0380    7.4120 C   0  0  0  0  0  3  0  0  0  0  0  0
    3.1540   -0.6670    7.5320 C   0  0  0  0  0  3  0  0  0  0  0  0
    2.1770   -1.6350    7.7530 C   0  0  0  0  0  3  0  0  0  0  0  0
    2.5400   -2.9760    7.8440 C   0  0  0  0  0  3  0  0  0  0  0  0
    3.8820   -3.3460    7.7000 C   0  0  0  0  0  0  0  0  0  0  0  0
    6.6760   -3.2510    5.9570 C   0  0  0  0  0  1  0  0  0  0  0  0
    6.3510   -2.7830    7.3780 C   0  0  0  0  0  3  0  0  0  0  0  0
    7.2900   -1.6500    7.8050 C   0  0  0  0  0  1  0  0  0  0  0  0
  1  6  1  0  0  0  0
  1 22  1  0  0  0  0
  2  1  2  0  0  0  0
  3  4  2  0  0  0  0
  3  2  1  0  0  0  0
  4  5  1  0  0  0  0
  5  6  2  0  0  0  0
  7  4  1  0  0  0  0
  8  9  2  0  0  0  0
  8  7  1  0  0  0  0
  9 12  1  0  0  0  0
 10 11  2  0  0  0  0
 10  9  1  0  0  0  0
 13 14  1  0  0  0  0
 13 10  1  0  0  0  0
 15 14  2  0  0  0  0
 16 15  1  0  0  0  0
 17 16  2  0  0  0  0
 17 18  1  0  0  0  0
 18 13  2  0  0  0  0
 19 21  1  0  0  0  0
 19  8  1  0  0  0  0
 20 19  2  0  0  0  0
 23 28  1  0  0  0  0
 24 23  2  0  0  0  0
 24 25  1  0  0  0  0
 25 26  2  0  0  0  0
 26 27  1  0  0  0  0
 28 22  1  0  0  0  0
 28 27  2  0  0  0  0
 29 30  1  0  0  0  0
 30 23  1  0  0  0  0
 30 31  1  0  0  0  0
M  END
>  <minimizedAffinity>
-7.23249292

$$$$

 OpenBabel09122223453D

 31 33  0  0  0  0  0  0  0  0999 V2000
    8.0500   -4.7690    1.1820 C   0  0  0  0  0  0  0  0  0  0  0  0
    7.4590   -4.2550    2.3390 C   0  0  0  0  0  3  0  0  0  0  0  0
    7.7690   -2.9610    2.7690 C   0  0  0  0  0  3  0  0  0  0  0  0
    8.6710   -2.1730    2.0470 C   0  0  0  0  0  0  0  0  0  0  0  0
    9.2630   -2.6880    0.8910 C   0  0  0  0  0  3  0  0  0  0  0  0
    8.9540   -3.9800    0.4630 C   0  0  0  0  0  3  0  0  0  0  0  0
    9.0120   -0.8240    2.5020 C   0  0  0  0  0  2  0  0  0  0  0  0
    9.8200   -0.5120    3.5350 C   0  0  0  0  0  0  0  0  0  0  0  0
   10.4480   -1.4960    4.2870 N   0  0  0  0  0  4  0  0  0  0  0  0
   10.2750   -1.8930    5.5950 C   0  0  0  0  0  0  0  0  0  0  0  0
   11.1250   -2.6130    6.1270 O   0  0  0  0  0  0  0  0  0  0  0  0
   11.2210   -1.9720    3.8460 H   0  0  0  0  0  0  0  0  0  0  0  0
    9.0530   -1.5790    6.3640 C   0  0  0  0  0  0  0  0  0  0  0  0
    7.9260   -2.3910    6.1920 C   0  0  0  0  0  3  0  0  0  0  0  0
    6.7330   -2.0780    6.8450 C   0  0  0  0  0  3  0  0  0  0  0  0
    6.6590   -0.9430    7.6550 C   0  0  0  0  0  3  0  0  0  0  0  0
    7.7740   -0.1180    7.8050 C   0  0  0  0  0  3  0  0  0  0  0  0
    8.9680   -0.4250    7.1490 C   0  0  0  0  0  3  0  0  0  0  0  0
   10.0210    1.0290    3.7040 C   0  0  0  0  0  0  0  0  0  0  0  0
   10.7320    1.3710    4.6950 O   0  0  0  0  0  1  0  0  0  0  0  0
    9.4080    1.7380    2.8550 O   0  0  0  0  0  0  0  0  0  0  0  0
    7.8500   -6.0370    0.6740 O   0  0  0  0  0  0  0  0  0  0  0  0
    6.0350   -7.4810    1.3390 C   0  0  0  0  0  0  0  0  0  0  0  0
    4.7150   -7.9030    1.1020 C   0  0  0  0  0  3  0  0  0  0  0  0
    3.9560   -7.3530    0.0640 C   0  0  0  0  0  3  0  0  0  0  0  0
    4.5040   -6.3740   -0.7610 C   0  0  0  0  0  3  0  0  0  0  0  0
    5.8080   -5.9360   -0.5430 C   0  0  0  0  0  3  0  0  0  0  0  0
    6.5560   -6.4710    0.5120 C   0  0  0  0  0  0  0  0  0  0  0  0
    6.1410   -9.2860    3.0920 C   0  0  0  0  0  1  0  0  0  0  0  0
    6.8560   -8.0850    2.4670 C   0  0  0  0  0  3  0  0  0  0  0  0
    8.2650   -8.4720    2.0050 C   0  0  0  0  0  1  0  0  0  0  0  0
  1  2  1  0  0  0  0
  2  3  2  0  0  0  0
  4  7  1  0  0  0  0
  4  3  1  0  0  0  0
  5  4  2  0  0  0  0
  6  5  1  0  0  0  0
  6  1  2  0  0  0  0
  7  8  1  0  0  0  0
  8 19  1  0  0  0  0
  8  9  2  0  0  0  0
  9 10  1  0  0  0  0
 10 11  2  0  0  0  0
 10 13  1  0  0  0  0
 12  9  1  0  0  0  0
 13 18  1  0  0  0  0
 14 13  2  0  0  0  0
 14 15  1  0  0  0  0
 15 16  2  0  0  0  0
 16 17  1  0  0  0  0
 18 17  2  0  0  0  0
 19 20  1  0  0  0  0
 21 19  2  0  0  0  0
 22  1  1  0  0  0  0
 23 30  1  0  0  0  0
 24 23  1  0  0  0  0
 25 24  2  0  0  0  0
 26 27  2  0  0  0  0
 26 25  1  0  0  0  0
 27 28  1  0  0  0  0
 28 22  1  0  0  0  0
 28 23  2  0  0  0  0
 30 29  1  0  0  0  0
 31 30  1  0  0  0  0
M  END
>  <minimizedAffinity>
-7.20406771

$$$$

 OpenBabel09122223453D

 31 33  0  0  0  0  0  0  0  0999 V2000
    8.1370   -5.0710    0.9820 C   0  0  0  0  0  0  0  0  0  0  0  0
    7.5540   -4.5770    2.1530 C   0  0  0  0  0  3  0  0  0  0  0  0
    7.7850   -3.2550    2.5460 C   0  0  0  0  0  3  0  0  0  0  0  0
    8.5990   -2.4190    1.7750 C   0  0  0  0  0  0  0  0  0  0  0  0
    9.1810   -2.9140    0.6060 C   0  0  0  0  0  3  0  0  0  0  0  0
    8.9520   -4.2340    0.2140 C   0  0  0  0  0  3  0  0  0  0  0  0
    8.8560   -1.0390    2.1910 C   0  0  0  0  0  2  0  0  0  0  0  0
    9.6470   -0.6500    3.2120 C   0  0  0  0  0  0  0  0  0  0  0  0
   10.3370   -1.5720    3.9880 N   0  0  0  0  0  4  0  0  0  0  0  0
   10.1480   -1.9930    5.2860 C   0  0  0  0  0  0  0  0  0  0  0  0
   11.0420   -2.6290    5.8520 O   0  0  0  0  0  0  0  0  0  0  0  0
   11.1710   -1.9680    3.5790 H   0  0  0  0  0  0  0  0  0  0  0  0
    8.8700   -1.8060    6.0030 C   0  0  0  0  0  0  0  0  0  0  0  0
    8.7580   -0.7400    6.9040 C   0  0  0  0  0  3  0  0  0  0  0  0
    7.5920   -0.5800    7.6550 C   0  0  0  0  0  3  0  0  0  0  0  0
    6.5460   -1.4940    7.5210 C   0  0  0  0  0  3  0  0  0  0  0  0
    6.6680   -2.5720    6.6430 C   0  0  0  0  0  3  0  0  0  0  0  0
    7.8350   -2.7400    5.8950 C   0  0  0  0  0  3  0  0  0  0  0  0
    9.7520    0.9050    3.3370 C   0  0  0  0  0  0  0  0  0  0  0  0
    9.3490    1.5510    2.3250 O   0  0  0  0  0  0  0  0  0  0  0  0
   10.2700    1.3150    4.4160 O   0  0  0  0  0  1  0  0  0  0  0  0
    8.0110   -6.3600    0.5070 O   0  0  0  0  0  0  0  0  0  0  0  0
    5.8060   -7.1990    1.0130 C   0  0  0  0  0  0  0  0  0  0  0  0
    5.0270   -8.0910    1.7720 C   0  0  0  0  0  3  0  0  0  0  0  0
    5.6190   -8.9590    2.6950 C   0  0  0  0  0  3  0  0  0  0  0  0
    6.9990   -8.9490    2.8820 C   0  0  0  0  0  3  0  0  0  0  0  0
    7.7900   -8.0780    2.1380 C   0  0  0  0  0  3  0  0  0  0  0  0
    7.1980   -7.2280    1.1970 C   0  0  0  0  0  0  0  0  0  0  0  0
    4.1970   -7.0050   -0.9150 C   0  0  0  0  0  1  0  0  0  0  0  0
    5.1570   -6.2550    0.0130 C   0  0  0  0  0  3  0  0  0  0  0  0
    4.4440   -5.0900    0.7060 C   0  0  0  0  0  1  0  0  0  0  0  0
  1  2  1  0  0  0  0
  2  3  2  0  0  0  0
  4  7  1  0  0  0  0
  4  3  1  0  0  0  0
  5  4  2  0  0  0  0
  6  5  1  0  0  0  0
  6  1  2  0  0  0  0
  7  8  1  0  0  0  0
  8 19  1  0  0  0  0
  8  9  2  0  0  0  0
  9 10  1  0  0  0  0
 10 11  2  0  0  0  0
 10 13  1  0  0  0  0
 12  9  1  0  0  0  0
 13 14  1  0  0  0  0
 14 15  2  0  0  0  0
 16 15  1  0  0  0  0
 17 16  2  0  0  0  0
 18 13  2  0  0  0  0
 18 17  1  0  0  0  0
 19 21  1  0  0  0  0
 20 19  2  0  0  0  0
 22  1  1  0  0  0  0
 22 28  1  0  0  0  0
 23 28  2  0  0  0  0
 23 24  1  0  0  0  0
 24 25  2  0  0  0  0
 25 26  1  0  0  0  0
 27 26  2  0  0  0  0
 28 27  1  0  0  0  0
 29 30  1  0  0  0  0
 30 31  1  0  0  0  0
 30 23  1  0  0  0  0
M  END
>  <minimizedAffinity>
-6.95671034

$$$$
