
 OpenBabel08182222443D

 43 47  0  0  1  0  0  0  0  0999 V2000
   12.3280   32.6840    9.6490 C   0  0  0  0  0  0  0  0  0  0  0  0
   12.3880   33.6410    8.8740 O   0  0  0  0  0  0  0  0  0  0  0  0
   12.9800   31.4580    9.3950 N   0  0  0  0  0  0  0  0  0  0  0  0
   13.4200   30.5690   10.5020 C   0  0  2  0  0  3  0  0  0  0  0  0
   14.8970   30.7930   10.6990 C   0  0  0  0  0  0  0  0  0  0  0  0
   15.8380   30.4670    9.7920 C   0  0  0  0  0  0  0  0  0  0  0  0
   17.3380   30.5990   10.0030 C   0  0  0  0  0  2  0  0  0  0  0  0
   17.8560   30.8100   11.4390 C   0  0  0  0  0  0  0  0  0  0  0  0
   17.0330   31.9070   12.1110 C   0  0  0  0  0  2  0  0  0  0  0  0
   15.2990   31.5620   12.1940 S   0  0  0  0  0  0  0  0  0  0  0  0
   15.0890   30.6290   13.2850 O   0  0  0  0  0  0  0  0  0  0  0  0
   14.6330   32.8540   12.2280 O   0  0  0  0  0  0  0  0  0  0  0  0
   17.8340   29.4940   12.2360 C   0  0  0  0  0  1  0  0  0  0  0  0
   19.3250   31.2800   11.3700 C   0  0  0  0  0  1  0  0  0  0  0  0
   15.5140   29.9650    8.5500 N   0  0  0  0  0  0  0  0  0  0  0  0
   14.4420   30.3100    7.6920 C   0  0  0  0  0  0  0  0  0  0  0  0
   13.3190   31.0920    8.0380 C   0  0  0  0  0  0  0  0  0  0  0  0
   12.4190   31.4540    7.0090 C   0  0  0  0  0  3  0  0  0  0  0  0
   12.5960   31.0390    5.6860 C   0  0  0  0  0  3  0  0  0  0  0  0
   13.6790   30.2420    5.3490 C   0  0  0  0  0  3  0  0  0  0  0  0
   14.5850   29.8910    6.3440 C   0  0  0  0  0  0  0  0  0  0  0  0
   16.2400   29.4580    8.0390 H   0  0  0  0  0  0  0  0  0  0  0  0
    9.3730   31.4040   10.2660 C   0  0  0  0  0  1  0  0  0  0  0  0
   10.2900   32.2170   11.0850 C   0  0  0  0  0  0  0  0  0  0  0  0
   11.5230   32.7980   10.8660 C   0  0  0  0  0  0  0  0  0  0  0  0
   11.9270   33.4450   12.0260 N   0  0  0  0  0  0  0  0  0  0  0  0
   10.9230   33.2650   12.8580 C   0  0  0  0  0  0  0  0  0  0  0  0
    9.8960   32.5170   12.3580 O   0  0  0  0  0  0  0  0  0  0  0  0
   10.7660   33.7530   14.2430 C   0  0  0  0  0  1  0  0  0  0  0  0
   12.9090   29.1260   10.3670 C   0  0  0  0  0  0  0  0  0  0  0  0
   13.4850   28.0460   11.0420 C   0  0  0  0  0  0  0  0  0  0  0  0
   12.9730   26.7530   10.9340 C   0  0  0  0  0  3  0  0  0  0  0  0
   11.8460   26.4970   10.1570 C   0  0  0  0  0  0  0  0  0  0  0  0
   11.2240   27.5590    9.5110 C   0  0  0  0  0  3  0  0  0  0  0  0
   11.7430   28.8570    9.6250 C   0  0  0  0  0  3  0  0  0  0  0  0
   14.5500   28.2180   11.8340 F   0  0  0  0  0  0  0  0  0  0  0  0
   11.4460   25.1910   10.1430 O   0  0  0  0  0  0  0  0  0  0  0  0
   10.1270   24.8760    9.6940 C   0  0  0  0  0  2  0  0  0  0  0  0
   10.1430   24.2850    8.3020 C   0  0  0  0  0  0  0  0  0  0  0  0
   10.8000   23.1490    8.0130 C   0  0  0  0  0  2  0  0  0  0  0  0
    9.3530   25.0240    7.2580 C   0  0  0  0  0  1  0  0  0  0  0  0
   15.6920   29.1360    6.0260 O   0  0  0  0  0  0  0  0  0  0  0  0
   15.6390   28.8990    5.0850 H   0  0  0  0  0  0  0  0  0  0  0  0
  1 25  1  0  0  0  0
  2  1  2  0  0  0  0
  3  1  1  0  0  0  0
  3  4  1  0  0  0  0
  4 30  1  6  0  0  0
  4  5  1  0  0  0  0
  5 10  1  0  0  0  0
  6  7  1  0  0  0  0
  6  5  2  0  0  0  0
  7  8  1  0  0  0  0
  8  9  1  0  0  0  0
  8 13  1  0  0  0  0
  9 10  1  0  0  0  0
 10 12  2  0  0  0  0
 10 11  2  0  0  0  0
 14  8  1  0  0  0  0
 15  6  1  0  0  0  0
 16 17  1  0  0  0  0
 16 15  1  0  0  0  0
 17  3  1  0  0  0  0
 18 17  2  0  0  0  0
 19 18  1  0  0  0  0
 20 19  2  0  0  0  0
 20 21  1  0  0  0  0
 21 16  2  0  0  0  0
 22 15  1  0  0  0  0
 23 24  1  0  0  0  0
 24 28  1  0  0  0  0
 25 24  2  0  0  0  0
 25 26  1  0  0  0  0
 26 27  2  0  0  0  0
 27 29  1  0  0  0  0
 28 27  1  0  0  0  0
 30 31  1  0  0  0  0
 31 36  1  0  0  0  0
 32 31  2  0  0  0  0
 33 32  1  0  0  0  0
 34 35  1  0  0  0  0
 34 33  2  0  0  0  0
 35 30  2  0  0  0  0
 37 33  1  0  0  0  0
 38 37  1  0  0  0  0
 39 38  1  0  0  0  0
 40 39  2  0  0  0  0
 41 39  1  0  0  0  0
 42 21  1  0  0  0  0
 43 42  1  0  0  0  0
M  END
>  <minimizedAffinity>
-9.77449226

$$$$
