
 OpenBabel08182222443D

 43 47  0  0  1  0  0  0  0  0999 V2000
   15.9640   32.6630   11.3420 C   0  0  0  0  0  0  0  0  0  0  0  0
   15.9040   33.8520   11.6620 O   0  0  0  0  0  0  0  0  0  0  0  0
   14.8220   31.9090   10.9980 N   0  0  0  0  0  0  0  0  0  0  0  0
   14.9070   30.7460   10.0750 C   0  0  2  0  0  3  0  0  0  0  0  0
   14.4440   31.2150    8.7200 C   0  0  0  0  0  0  0  0  0  0  0  0
   13.1850   31.6020    8.4420 C   0  0  0  0  0  0  0  0  0  0  0  0
   12.6730   31.9930    7.0640 C   0  0  0  0  0  2  0  0  0  0  0  0
   13.5320   31.6270    5.8380 C   0  0  0  0  0  0  0  0  0  0  0  0
   14.9800   32.0330    6.1030 C   0  0  0  0  0  2  0  0  0  0  0  0
   15.6970   31.2660    7.5280 S   0  0  0  0  0  0  0  0  0  0  0  0
   16.0630   29.9110    7.1600 O   0  0  0  0  0  0  0  0  0  0  0  0
   16.7280   32.1750    7.9990 O   0  0  0  0  0  0  0  0  0  0  0  0
   13.3990   30.1340    5.4930 C   0  0  0  0  0  1  0  0  0  0  0  0
   13.0190   32.4270    4.6200 C   0  0  0  0  0  1  0  0  0  0  0  0
   12.2120   31.6790    9.4160 N   0  0  0  0  0  0  0  0  0  0  0  0
   12.3190   32.1040   10.7630 C   0  0  0  0  0  0  0  0  0  0  0  0
   13.5190   32.3210   11.4730 C   0  0  0  0  0  0  0  0  0  0  0  0
   13.4330   32.8840   12.7670 C   0  0  0  0  0  3  0  0  0  0  0  0
   12.2070   33.1990   13.3610 C   0  0  0  0  0  3  0  0  0  0  0  0
   11.0250   32.9540   12.6800 C   0  0  0  0  0  3  0  0  0  0  0  0
   11.0900   32.4180   11.3990 C   0  0  0  0  0  0  0  0  0  0  0  0
   11.2360   31.6720    9.1140 H   0  0  0  0  0  0  0  0  0  0  0  0
   18.7900   33.6630   10.0150 C   0  0  0  0  0  1  0  0  0  0  0  0
   18.4320   32.4640   10.7910 C   0  0  0  0  0  0  0  0  0  0  0  0
   17.2620   31.9850   11.3470 C   0  0  0  0  0  0  0  0  0  0  0  0
   17.5290   30.7870   11.9940 N   0  0  0  0  0  0  0  0  0  0  0  0
   18.8090   30.5790   11.7680 C   0  0  0  0  0  0  0  0  0  0  0  0
   19.4270   31.5650   11.0520 O   0  0  0  0  0  0  0  0  0  0  0  0
   19.6530   29.4430   12.1870 C   0  0  0  0  0  1  0  0  0  0  0  0
   14.2960   29.4610   10.6530 C   0  0  0  0  0  0  0  0  0  0  0  0
   13.7280   28.4610    9.8580 C   0  0  0  0  0  0  0  0  0  0  0  0
   13.2200   27.2830   10.4070 C   0  0  0  0  0  3  0  0  0  0  0  0
   13.2810   27.0540   11.7790 C   0  0  0  0  0  0  0  0  0  0  0  0
   13.8820   28.0100   12.5900 C   0  0  0  0  0  3  0  0  0  0  0  0
   14.3920   29.1910   12.0320 C   0  0  0  0  0  3  0  0  0  0  0  0
   13.6640   28.5930    8.5270 F   0  0  0  0  0  0  0  0  0  0  0  0
   12.7550   25.8610   12.1830 O   0  0  0  0  0  0  0  0  0  0  0  0
   13.5800   24.9540   12.9160 C   0  0  0  0  0  2  0  0  0  0  0  0
   14.3500   24.0360   11.9940 C   0  0  0  0  0  0  0  0  0  0  0  0
   13.8570   23.6270   10.8140 C   0  0  0  0  0  2  0  0  0  0  0  0
   15.7200   23.6260   12.4590 C   0  0  0  0  0  1  0  0  0  0  0  0
    9.9320   32.2070   10.6840 O   0  0  0  0  0  0  0  0  0  0  0  0
    9.1780   32.4340   11.2540 H   0  0  0  0  0  0  0  0  0  0  0  0
  1 25  1  0  0  0  0
  1  2  2  0  0  0  0
  3  1  1  0  0  0  0
  3 17  1  0  0  0  0
  4 30  1  1  0  0  0
  4  3  1  0  0  0  0
  5  4  1  0  0  0  0
  6  5  2  0  0  0  0
  6 15  1  0  0  0  0
  7  6  1  0  0  0  0
  8  9  1  0  0  0  0
  8  7  1  0  0  0  0
  9 10  1  0  0  0  0
 10 12  2  0  0  0  0
 10  5  1  0  0  0  0
 11 10  2  0  0  0  0
 13  8  1  0  0  0  0
 14  8  1  0  0  0  0
 15 16  1  0  0  0  0
 16 21  2  0  0  0  0
 16 17  1  0  0  0  0
 17 18  2  0  0  0  0
 18 19  1  0  0  0  0
 20 19  2  0  0  0  0
 21 20  1  0  0  0  0
 22 15  1  0  0  0  0
 23 24  1  0  0  0  0
 24 28  1  0  0  0  0
 24 25  2  0  0  0  0
 25 26  1  0  0  0  0
 27 26  2  0  0  0  0
 27 29  1  0  0  0  0
 28 27  1  0  0  0  0
 30 35  1  0  0  0  0
 31 32  1  0  0  0  0
 31 30  2  0  0  0  0
 32 33  2  0  0  0  0
 33 37  1  0  0  0  0
 33 34  1  0  0  0  0
 35 34  2  0  0  0  0
 36 31  1  0  0  0  0
 37 38  1  0  0  0  0
 39 41  1  0  0  0  0
 39 38  1  0  0  0  0
 40 39  2  0  0  0  0
 42 43  1  0  0  0  0
 42 21  1  0  0  0  0
M  END
>  <minimizedAffinity>
-9.29807758

$$$$
