
 OpenBabel08182222443D

 43 47  0  0  1  0  0  0  0  0999 V2000
   18.1380   42.6130   13.0080 C   0  0  0  0  0  0  0  0  0  0  0  0
   18.0900   41.8630   12.0310 O   0  0  0  0  0  0  0  0  0  0  0  0
   17.5860   43.9120   12.9970 N   0  0  0  0  0  0  0  0  0  0  0  0
   17.1030   44.5620   14.2440 C   0  0  2  0  0  3  0  0  0  0  0  0
   15.6040   44.4170   14.2750 C   0  0  0  0  0  0  0  0  0  0  0  0
   14.7690   45.0110   13.4020 C   0  0  0  0  0  0  0  0  0  0  0  0
   13.2500   44.9540   13.4660 C   0  0  0  0  0  2  0  0  0  0  0  0
   12.5950   44.4660   14.7730 C   0  0  0  0  0  0  0  0  0  0  0  0
   13.2870   43.1850   15.2320 C   0  0  0  0  0  2  0  0  0  0  0  0
   15.0240   43.3640   15.5190 S   0  0  0  0  0  0  0  0  0  0  0  0
   15.1920   44.0080   16.8080 O   0  0  0  0  0  0  0  0  0  0  0  0
   15.6060   42.0500   15.3030 O   0  0  0  0  0  0  0  0  0  0  0  0
   12.6250   45.5640   15.8520 C   0  0  0  0  0  1  0  0  0  0  0  0
   11.1120   44.1420   14.4910 C   0  0  0  0  0  1  0  0  0  0  0  0
   15.2320   45.7520   12.3360 N   0  0  0  0  0  0  0  0  0  0  0  0
   16.3530   45.5260   11.5020 C   0  0  0  0  0  0  0  0  0  0  0  0
   17.3920   44.6000   11.7390 C   0  0  0  0  0  0  0  0  0  0  0  0
   18.3560   44.4090   10.7240 C   0  0  0  0  0  3  0  0  0  0  0  0
   18.3230   45.1240    9.5230 C   0  0  0  0  0  3  0  0  0  0  0  0
   17.3250   46.0600    9.3010 C   0  0  0  0  0  3  0  0  0  0  0  0
   16.3570   46.2480   10.2810 C   0  0  0  0  0  0  0  0  0  0  0  0
   14.5870   46.4170   11.9050 H   0  0  0  0  0  0  0  0  0  0  0  0
   20.9260   43.7450   14.3120 C   0  0  0  0  0  1  0  0  0  0  0  0
   19.9870   42.6940   14.7420 C   0  0  0  0  0  0  0  0  0  0  0  0
   18.8230   42.1650   14.2210 C   0  0  0  0  0  0  0  0  0  0  0  0
   18.3480   41.1860   15.0840 N   0  0  0  0  0  0  0  0  0  0  0  0
   19.2500   41.1400   16.0420 C   0  0  0  0  0  0  0  0  0  0  0  0
   20.2710   42.0380   15.9070 O   0  0  0  0  0  0  0  0  0  0  0  0
   19.2990   40.2650   17.2300 C   0  0  0  0  0  1  0  0  0  0  0  0
   17.7100   45.9530   14.4830 C   0  0  0  0  0  0  0  0  0  0  0  0
   17.2630   46.8190   15.4860 C   0  0  0  0  0  0  0  0  0  0  0  0
   17.8620   48.0590   15.7080 C   0  0  0  0  0  3  0  0  0  0  0  0
   18.9500   48.4710   14.9420 C   0  0  0  0  0  0  0  0  0  0  0  0
   19.4460   47.6110   13.9690 C   0  0  0  0  0  3  0  0  0  0  0  0
   18.8410   46.3650   13.7510 C   0  0  0  0  0  3  0  0  0  0  0  0
   16.2440   46.4790   16.2840 F   0  0  0  0  0  0  0  0  0  0  0  0
   19.4450   49.7010   15.2680 O   0  0  0  0  0  0  0  0  0  0  0  0
   20.3350   50.3520   14.3600 C   0  0  0  0  0  2  0  0  0  0  0  0
   21.7490   50.3760   14.8920 C   0  0  0  0  0  0  0  0  0  0  0  0
   22.8210   50.3840   14.0820 C   0  0  0  0  0  2  0  0  0  0  0  0
   21.8950   50.4220   16.3880 C   0  0  0  0  0  1  0  0  0  0  0  0
   15.3290   47.1400   10.0660 O   0  0  0  0  0  0  0  0  0  0  0  0
   15.4810   47.5780    9.2120 H   0  0  0  0  0  0  0  0  0  0  0  0
  1 25  1  0  0  0  0
  2  1  2  0  0  0  0
  3  1  1  0  0  0  0
  3  4  1  0  0  0  0
  4  5  1  0  0  0  0
  4 30  1  6  0  0  0
  5 10  1  0  0  0  0
  6  7  1  0  0  0  0
  6  5  2  0  0  0  0
  7  8  1  0  0  0  0
  8  9  1  0  0  0  0
  8 13  1  0  0  0  0
  9 10  1  0  0  0  0
 10 11  2  0  0  0  0
 12 10  2  0  0  0  0
 14  8  1  0  0  0  0
 15  6  1  0  0  0  0
 16 17  1  0  0  0  0
 16 15  1  0  0  0  0
 17  3  1  0  0  0  0
 18 17  2  0  0  0  0
 19 18  1  0  0  0  0
 20 19  2  0  0  0  0
 20 21  1  0  0  0  0
 21 16  2  0  0  0  0
 22 15  1  0  0  0  0
 23 24  1  0  0  0  0
 24 28  1  0  0  0  0
 25 24  2  0  0  0  0
 25 26  1  0  0  0  0
 26 27  2  0  0  0  0
 27 29  1  0  0  0  0
 28 27  1  0  0  0  0
 30 31  1  0  0  0  0
 31 32  2  0  0  0  0
 31 36  1  0  0  0  0
 33 37  1  0  0  0  0
 33 32  1  0  0  0  0
 34 33  2  0  0  0  0
 35 34  1  0  0  0  0
 35 30  2  0  0  0  0
 38 39  1  0  0  0  0
 38 37  1  0  0  0  0
 39 41  1  0  0  0  0
 40 39  2  0  0  0  0
 42 21  1  0  0  0  0
 43 42  1  0  0  0  0
M  END
>  <minimizedAffinity>
-9.40399361

$$$$
