
 OpenBabel08182222443D

 43 47  0  0  1  0  0  0  0  0999 V2000
   18.3910   42.5400   12.3760 C   0  0  0  0  0  0  0  0  0  0  0  0
   19.3770   41.8190   12.2030 O   0  0  0  0  0  0  0  0  0  0  0  0
   17.9890   42.9850   13.6530 N   0  0  0  0  0  0  0  0  0  0  0  0
   17.2450   44.2590   13.8330 C   0  0  2  0  0  3  0  0  0  0  0  0
   18.2380   45.2990   14.2840 C   0  0  0  0  0  0  0  0  0  0  0  0
   18.8780   45.2700   15.4680 C   0  0  0  0  0  0  0  0  0  0  0  0
   19.8140   46.3520   15.9840 C   0  0  0  0  0  2  0  0  0  0  0  0
   19.8000   47.7230   15.2790 C   0  0  0  0  0  0  0  0  0  0  0  0
   19.8660   47.5090   13.7690 C   0  0  0  0  0  2  0  0  0  0  0  0
   18.5370   46.5400   13.1170 S   0  0  0  0  0  0  0  0  0  0  0  0
   17.3720   47.3990   13.0220 O   0  0  0  0  0  0  0  0  0  0  0  0
   19.0510   45.9080   11.9130 O   0  0  0  0  0  0  0  0  0  0  0  0
   18.5720   48.5500   15.6980 C   0  0  0  0  0  1  0  0  0  0  0  0
   21.0540   48.5130   15.7120 C   0  0  0  0  0  1  0  0  0  0  0  0
   18.7350   44.2210   16.3510 N   0  0  0  0  0  0  0  0  0  0  0  0
   18.6190   42.8340   16.0900 C   0  0  0  0  0  0  0  0  0  0  0  0
   18.3850   42.2430   14.8300 C   0  0  0  0  0  0  0  0  0  0  0  0
   18.4440   40.8340   14.7370 C   0  0  0  0  0  3  0  0  0  0  0  0
   18.6950   40.0240   15.8490 C   0  0  0  0  0  3  0  0  0  0  0  0
   18.8900   40.6000   17.0940 C   0  0  0  0  0  3  0  0  0  0  0  0
   18.8550   41.9860   17.2020 C   0  0  0  0  0  0  0  0  0  0  0  0
   18.9810   44.3870   17.3290 H   0  0  0  0  0  0  0  0  0  0  0  0
   15.3960   41.4940   11.5500 C   0  0  0  0  0  1  0  0  0  0  0  0
   16.3070   42.4730   10.9330 C   0  0  0  0  0  0  0  0  0  0  0  0
   17.5780   42.9280   11.2220 C   0  0  0  0  0  0  0  0  0  0  0  0
   17.9360   43.8880   10.2860 N   0  0  0  0  0  0  0  0  0  0  0  0
   16.9060   43.9360    9.4670 C   0  0  0  0  0  0  0  0  0  0  0  0
   15.8710   43.1110    9.8050 O   0  0  0  0  0  0  0  0  0  0  0  0
   16.7220   44.7580    8.2550 C   0  0  0  0  0  1  0  0  0  0  0  0
   15.9400   44.0980   14.6290 C   0  0  0  0  0  0  0  0  0  0  0  0
   15.3130   45.1590   15.2890 C   0  0  0  0  0  0  0  0  0  0  0  0
   14.1060   44.9920   15.9680 C   0  0  0  0  0  3  0  0  0  0  0  0
   13.4680   43.7540   15.9930 C   0  0  0  0  0  0  0  0  0  0  0  0
   14.0450   42.6920   15.3060 C   0  0  0  0  0  3  0  0  0  0  0  0
   15.2580   42.8660   14.6240 C   0  0  0  0  0  3  0  0  0  0  0  0
   15.8470   46.3860   15.2820 F   0  0  0  0  0  0  0  0  0  0  0  0
   12.2920   43.7310   16.6850 O   0  0  0  0  0  0  0  0  0  0  0  0
   11.7940   44.9460   17.2450 C   0  0  0  0  0  2  0  0  0  0  0  0
   10.2860   45.0170   17.1660 C   0  0  0  0  0  0  0  0  0  0  0  0
    9.5480   45.6480   18.0950 C   0  0  0  0  0  2  0  0  0  0  0  0
    9.6530   44.3640   15.9690 C   0  0  0  0  0  1  0  0  0  0  0  0
   19.0890   42.5840   18.4210 O   0  0  0  0  0  0  0  0  0  0  0  0
   19.2010   41.8850   19.0860 H   0  0  0  0  0  0  0  0  0  0  0  0
  1  3  1  0  0  0  0
  2  1  2  0  0  0  0
  3  4  1  0  0  0  0
  3 17  1  0  0  0  0
  4  5  1  0  0  0  0
  4 30  1  1  0  0  0
  5  6  2  0  0  0  0
  6  7  1  0  0  0  0
  6 15  1  0  0  0  0
  8 13  1  0  0  0  0
  8 14  1  0  0  0  0
  8  7  1  0  0  0  0
  9  8  1  0  0  0  0
 10  9  1  0  0  0  0
 10  5  1  0  0  0  0
 11 10  2  0  0  0  0
 12 10  2  0  0  0  0
 15 22  1  0  0  0  0
 16 15  1  0  0  0  0
 16 21  1  0  0  0  0
 17 16  2  0  0  0  0
 18 17  1  0  0  0  0
 18 19  2  0  0  0  0
 19 20  1  0  0  0  0
 20 21  2  0  0  0  0
 21 42  1  0  0  0  0
 24 25  2  0  0  0  0
 24 23  1  0  0  0  0
 25  1  1  0  0  0  0
 26 25  1  0  0  0  0
 27 28  1  0  0  0  0
 27 26  2  0  0  0  0
 28 24  1  0  0  0  0
 29 27  1  0  0  0  0
 30 31  1  0  0  0  0
 31 32  2  0  0  0  0
 32 33  1  0  0  0  0
 33 37  1  0  0  0  0
 34 33  2  0  0  0  0
 35 30  2  0  0  0  0
 35 34  1  0  0  0  0
 36 31  1  0  0  0  0
 37 38  1  0  0  0  0
 39 38  1  0  0  0  0
 39 40  2  0  0  0  0
 41 39  1  0  0  0  0
 42 43  1  0  0  0  0
M  END
>  <minimizedAffinity>
-10.0229073

$$$$
