
 OpenBabel08182222443D

 43 47  0  0  1  0  0  0  0  0999 V2000
   14.9370   31.3600   11.7040 C   0  0  0  0  0  0  0  0  0  0  0  0
   15.6860   30.4230   11.9890 O   0  0  0  0  0  0  0  0  0  0  0  0
   15.2710   32.3330   10.7370 N   0  0  0  0  0  0  0  0  0  0  0  0
   14.2220   33.0590    9.9730 C   0  0  2  0  0  3  0  0  0  0  0  0
   14.1210   32.4060    8.6190 C   0  0  0  0  0  0  0  0  0  0  0  0
   15.0990   32.4280    7.6930 C   0  0  0  0  0  0  0  0  0  0  0  0
   14.9870   31.8560    6.2890 C   0  0  0  0  0  2  0  0  0  0  0  0
   13.5840   31.5110    5.7530 C   0  0  0  0  0  0  0  0  0  0  0  0
   12.8260   30.7150    6.8120 C   0  0  0  0  0  2  0  0  0  0  0  0
   12.6350   31.5620    8.3540 S   0  0  0  0  0  0  0  0  0  0  0  0
   11.5600   32.5240    8.1960 O   0  0  0  0  0  0  0  0  0  0  0  0
   12.5180   30.5290    9.3700 O   0  0  0  0  0  0  0  0  0  0  0  0
   12.8270   32.7790    5.3230 C   0  0  0  0  0  1  0  0  0  0  0  0
   13.7400   30.6230    4.4980 C   0  0  0  0  0  1  0  0  0  0  0  0
   16.3300   32.9950    7.9440 N   0  0  0  0  0  0  0  0  0  0  0  0
   17.1030   32.9790    9.1310 C   0  0  0  0  0  0  0  0  0  0  0  0
   16.6580   32.5700   10.4070 C   0  0  0  0  0  0  0  0  0  0  0  0
   17.6120   32.4860   11.4460 C   0  0  0  0  0  3  0  0  0  0  0  0
   18.9560   32.8190   11.2530 C   0  0  0  0  0  3  0  0  0  0  0  0
   19.3890   33.2550   10.0100 C   0  0  0  0  0  3  0  0  0  0  0  0
   18.4690   33.3260    8.9690 C   0  0  0  0  0  0  0  0  0  0  0  0
   16.9040   33.2580    7.1410 H   0  0  0  0  0  0  0  0  0  0  0  0
   14.2250   33.3070   14.2440 C   0  0  0  0  0  1  0  0  0  0  0  0
   13.4100   32.3570   13.4670 C   0  0  0  0  0  0  0  0  0  0  0  0
   13.6650   31.5010   12.4140 C   0  0  0  0  0  0  0  0  0  0  0  0
   12.4890   30.8470   12.0720 N   0  0  0  0  0  0  0  0  0  0  0  0
   11.6090   31.2960   12.9420 C   0  0  0  0  0  0  0  0  0  0  0  0
   12.0950   32.2270   13.8140 O   0  0  0  0  0  0  0  0  0  0  0  0
   10.1850   30.9370   13.0900 C   0  0  0  0  0  1  0  0  0  0  0  0
   14.3650   34.5870   10.0400 C   0  0  0  0  0  0  0  0  0  0  0  0
   14.0660   35.4300    8.9650 C   0  0  0  0  0  0  0  0  0  0  0  0
   14.1630   36.8180    9.0690 C   0  0  0  0  0  3  0  0  0  0  0  0
   14.5460   37.4160   10.2670 C   0  0  0  0  0  0  0  0  0  0  0  0
   14.8050   36.6060   11.3660 C   0  0  0  0  0  3  0  0  0  0  0  0
   14.7040   35.2120   11.2560 C   0  0  0  0  0  3  0  0  0  0  0  0
   13.6580   34.9300    7.7920 F   0  0  0  0  0  0  0  0  0  0  0  0
   14.5930   38.7800   10.2340 O   0  0  0  0  0  0  0  0  0  0  0  0
   14.0060   39.5190   11.3060 C   0  0  0  0  0  2  0  0  0  0  0  0
   15.0600   40.1200   12.2080 C   0  0  0  0  0  0  0  0  0  0  0  0
   16.0740   40.8610   11.7320 C   0  0  0  0  0  2  0  0  0  0  0  0
   14.8940   39.8660   13.6810 C   0  0  0  0  0  1  0  0  0  0  0  0
   18.8830   33.7140    7.7140 O   0  0  0  0  0  0  0  0  0  0  0  0
   19.8250   33.9490    7.7640 H   0  0  0  0  0  0  0  0  0  0  0  0
  1  2  2  0  0  0  0
  1 25  1  0  0  0  0
  3  1  1  0  0  0  0
  4 30  1  6  0  0  0
  4  3  1  0  0  0  0
  5  4  1  0  0  0  0
  6 15  1  0  0  0  0
  6  5  2  0  0  0  0
  7  6  1  0  0  0  0
  8  7  1  0  0  0  0
  8  9  1  0  0  0  0
  9 10  1  0  0  0  0
 10  5  1  0  0  0  0
 10 12  2  0  0  0  0
 11 10  2  0  0  0  0
 13  8  1  0  0  0  0
 14  8  1  0  0  0  0
 15 16  1  0  0  0  0
 16 17  1  0  0  0  0
 17  3  1  0  0  0  0
 17 18  2  0  0  0  0
 19 18  1  0  0  0  0
 20 19  2  0  0  0  0
 21 16  2  0  0  0  0
 21 20  1  0  0  0  0
 22 15  1  0  0  0  0
 24 28  1  0  0  0  0
 24 23  1  0  0  0  0
 25 24  2  0  0  0  0
 26 25  1  0  0  0  0
 26 27  2  0  0  0  0
 27 29  1  0  0  0  0
 27 28  1  0  0  0  0
 30 35  1  0  0  0  0
 31 32  1  0  0  0  0
 31 30  2  0  0  0  0
 32 33  2  0  0  0  0
 33 34  1  0  0  0  0
 35 34  2  0  0  0  0
 36 31  1  0  0  0  0
 37 33  1  0  0  0  0
 37 38  1  0  0  0  0
 38 39  1  0  0  0  0
 39 41  1  0  0  0  0
 40 39  2  0  0  0  0
 42 43  1  0  0  0  0
 42 21  1  0  0  0  0
M  END
>  <minimizedAffinity>
-9.05038834

$$$$
