
 OpenBabel08182222443D

 43 47  0  0  1  0  0  0  0  0999 V2000
   14.1810   42.9140   15.1360 C   0  0  0  0  0  0  0  0  0  0  0  0
   13.9350   41.7180   14.9620 O   0  0  0  0  0  0  0  0  0  0  0  0
   15.1180   43.6200   14.3520 N   0  0  0  0  0  0  0  0  0  0  0  0
   14.9980   45.0850   14.1290 C   0  0  2  0  0  3  0  0  0  0  0  0
   14.3900   45.2830   12.7650 C   0  0  0  0  0  0  0  0  0  0  0  0
   14.9990   44.9520   11.6100 C   0  0  0  0  0  0  0  0  0  0  0  0
   14.4460   45.2230   10.2200 C   0  0  0  0  0  2  0  0  0  0  0  0
   13.2770   46.2190   10.0830 C   0  0  0  0  0  0  0  0  0  0  0  0
   12.2110   45.8850   11.1240 C   0  0  0  0  0  2  0  0  0  0  0  0
   12.7900   45.9400   12.7950 S   0  0  0  0  0  0  0  0  0  0  0  0
   12.8530   47.3330   13.1930 O   0  0  0  0  0  0  0  0  0  0  0  0
   11.9440   45.0260   13.5450 O   0  0  0  0  0  0  0  0  0  0  0  0
   13.7700   47.6720   10.1990 C   0  0  0  0  0  1  0  0  0  0  0  0
   12.6530   46.0580    8.6800 C   0  0  0  0  0  1  0  0  0  0  0  0
   16.2220   44.3170   11.5840 N   0  0  0  0  0  0  0  0  0  0  0  0
   16.7310   43.3090   12.4390 C   0  0  0  0  0  0  0  0  0  0  0  0
   16.1690   42.9000   13.6680 C   0  0  0  0  0  0  0  0  0  0  0  0
   16.7350   41.7780   14.3160 C   0  0  0  0  0  3  0  0  0  0  0  0
   17.8370   41.0940   13.7930 C   0  0  0  0  0  3  0  0  0  0  0  0
   18.4120   41.5150   12.6040 C   0  0  0  0  0  3  0  0  0  0  0  0
   17.8580   42.6050   11.9430 C   0  0  0  0  0  0  0  0  0  0  0  0
   16.7660   44.3700   10.7210 H   0  0  0  0  0  0  0  0  0  0  0  0
   15.3940   43.8300   18.0410 C   0  0  0  0  0  1  0  0  0  0  0  0
   14.0730   44.0170   17.4180 C   0  0  0  0  0  0  0  0  0  0  0  0
   13.5060   43.6330   16.2180 C   0  0  0  0  0  0  0  0  0  0  0  0
   12.2060   44.1150   16.1600 N   0  0  0  0  0  0  0  0  0  0  0  0
   12.0360   44.7170   17.3190 C   0  0  0  0  0  0  0  0  0  0  0  0
   13.1340   44.7080   18.1310 O   0  0  0  0  0  0  0  0  0  0  0  0
   10.8360   45.3980   17.8440 C   0  0  0  0  0  1  0  0  0  0  0  0
   16.2740   45.8640   14.4820 C   0  0  0  0  0  0  0  0  0  0  0  0
   16.6130   47.0840   13.8890 C   0  0  0  0  0  0  0  0  0  0  0  0
   17.7560   47.7910   14.2610 C   0  0  0  0  0  3  0  0  0  0  0  0
   18.5970   47.3090   15.2610 C   0  0  0  0  0  0  0  0  0  0  0  0
   18.2610   46.1210   15.9020 C   0  0  0  0  0  3  0  0  0  0  0  0
   17.1090   45.4160   15.5240 C   0  0  0  0  0  3  0  0  0  0  0  0
   15.8370   47.6280   12.9440 F   0  0  0  0  0  0  0  0  0  0  0  0
   19.6750   48.1010   15.5320 O   0  0  0  0  0  0  0  0  0  0  0  0
   20.0670   49.0870   14.5770 C   0  0  0  0  0  2  0  0  0  0  0  0
   21.4270   49.6630   14.9000 C   0  0  0  0  0  0  0  0  0  0  0  0
   22.2190   50.2040   13.9600 C   0  0  0  0  0  2  0  0  0  0  0  0
   21.8370   49.6240   16.3460 C   0  0  0  0  0  1  0  0  0  0  0  0
   18.3850   43.0160   10.7380 O   0  0  0  0  0  0  0  0  0  0  0  0
   19.1630   42.4670   10.5440 H   0  0  0  0  0  0  0  0  0  0  0  0
  1 25  1  0  0  0  0
  2  1  2  0  0  0  0
  3  1  1  0  0  0  0
  4  3  1  0  0  0  0
  4 30  1  6  0  0  0
  5 10  1  0  0  0  0
  5  4  1  0  0  0  0
  6  5  2  0  0  0  0
  7  6  1  0  0  0  0
  8 13  1  0  0  0  0
  8  7  1  0  0  0  0
  8  9  1  0  0  0  0
  9 10  1  0  0  0  0
 10 11  2  0  0  0  0
 10 12  2  0  0  0  0
 14  8  1  0  0  0  0
 15  6  1  0  0  0  0
 15 16  1  0  0  0  0
 16 17  1  0  0  0  0
 17 18  2  0  0  0  0
 17  3  1  0  0  0  0
 19 18  1  0  0  0  0
 20 19  2  0  0  0  0
 21 16  2  0  0  0  0
 21 20  1  0  0  0  0
 22 15  1  0  0  0  0
 24 23  1  0  0  0  0
 24 28  1  0  0  0  0
 25 24  2  0  0  0  0
 26 25  1  0  0  0  0
 26 27  2  0  0  0  0
 27 29  1  0  0  0  0
 27 28  1  0  0  0  0
 30 35  1  0  0  0  0
 31 32  1  0  0  0  0
 31 30  2  0  0  0  0
 32 33  2  0  0  0  0
 33 37  1  0  0  0  0
 33 34  1  0  0  0  0
 35 34  2  0  0  0  0
 36 31  1  0  0  0  0
 38 39  1  0  0  0  0
 38 37  1  0  0  0  0
 39 41  1  0  0  0  0
 40 39  2  0  0  0  0
 42 21  1  0  0  0  0
 43 42  1  0  0  0  0
M  END
>  <minimizedAffinity>
-8.59395313

$$$$
