
 OpenBabel09122222393D

 16 16  0  0  0  0  0  0  0  0999 V2000
    4.9780   -5.7140    2.3080 C   0  0  0  0  0  0  0  0  0  0  0  0
    4.5910   -4.4540    2.5460 C   0  0  0  0  0  3  0  0  0  0  0  0
    3.6370   -4.2020    3.6390 C   0  0  0  0  0  0  0  0  0  0  0  0
    3.2520   -3.0640    3.9040 O   0  0  0  0  0  0  0  0  0  0  0  0
    3.1470   -5.3690    4.4150 C   0  0  0  0  0  0  0  0  0  0  0  0
    3.6270   -6.5740    4.0860 C   0  0  0  0  0  0  0  0  0  0  0  0
    4.5460   -6.7870    3.0700 O   0  0  0  0  0  0  0  0  0  0  0  0
    3.1750   -7.8320    4.8300 C   0  0  0  0  0  0  0  0  0  0  0  0
    4.1050   -8.4860    5.3870 O   0  0  0  0  0  1  0  0  0  0  0  0
    1.9220   -8.0050    4.8800 O   0  0  0  0  0  0  0  0  0  0  0  0
    2.2330   -5.1280    5.4210 O   0  0  0  0  0  0  0  0  0  0  0  0
    2.1000   -4.1610    5.4120 H   0  0  0  0  0  0  0  0  0  0  0  0
    5.9600   -6.0840    1.2350 C   0  0  0  0  0  2  0  0  0  0  0  0
    7.2980   -5.6990    1.5630 O   0  0  0  0  0  0  0  0  0  0  0  0
    7.3400   -5.2720   -0.8550 C   0  0  0  0  0  1  0  0  0  0  0  0
    8.0630   -5.1710    0.4770 C   0  0  0  0  0  2  0  0  0  0  0  0
  1  2  2  0  0  0  0
  1  7  1  0  0  0  0
  2  3  1  0  0  0  0
  3  4  2  0  0  0  0
  3  5  1  0  0  0  0
  5 11  1  0  0  0  0
  6  5  2  0  0  0  0
  6  8  1  0  0  0  0
  7  6  1  0  0  0  0
  8 10  2  0  0  0  0
  8  9  1  0  0  0  0
 12 11  1  0  0  0  0
 13 14  1  0  0  0  0
 13  1  1  0  0  0  0
 15 16  1  0  0  0  0
 16 14  1  0  0  0  0
M  END
>  <minimizedAffinity>
-4.54589367

$$$$
