
 OpenBabel09122220003D

 16 16  0  0  0  0  0  0  0  0999 V2000
    5.1960   -6.8760    2.1880 C   0  0  0  0  0  0  0  0  0  0  0  0
    4.8250   -7.4220    1.0210 C   0  0  0  0  0  3  0  0  0  0  0  0
    5.5260   -7.0110   -0.2060 C   0  0  0  0  0  0  0  0  0  0  0  0
    5.2300   -7.4850   -1.3020 O   0  0  0  0  0  0  0  0  0  0  0  0
    6.6080   -6.0010   -0.0830 C   0  0  0  0  0  0  0  0  0  0  0  0
    6.8910   -5.5480    1.1440 C   0  0  0  0  0  0  0  0  0  0  0  0
    6.2360   -5.9670    2.2920 O   0  0  0  0  0  0  0  0  0  0  0  0
    7.9870   -4.5030    1.3640 C   0  0  0  0  0  0  0  0  0  0  0  0
    7.9560   -3.9260    2.4900 O   0  0  0  0  0  1  0  0  0  0  0  0
    8.8440   -4.4200    0.4350 O   0  0  0  0  0  0  0  0  0  0  0  0
    7.2430   -5.6020   -1.2410 O   0  0  0  0  0  0  0  0  0  0  0  0
    6.8170   -6.1190   -1.9510 H   0  0  0  0  0  0  0  0  0  0  0  0
    4.5660   -7.2340    3.5020 C   0  0  0  0  0  2  0  0  0  0  0  0
    4.4800   -6.1170    4.3890 O   0  0  0  0  0  0  0  0  0  0  0  0
    3.6440   -3.9050    3.7250 C   0  0  0  0  0  1  0  0  0  0  0  0
    3.3180   -5.3000    4.2300 C   0  0  0  0  0  2  0  0  0  0  0  0
  1  7  1  0  0  0  0
  1 13  1  0  0  0  0
  2  1  2  0  0  0  0
  3  5  1  0  0  0  0
  3  2  1  0  0  0  0
  4  3  2  0  0  0  0
  5  6  2  0  0  0  0
  6  8  1  0  0  0  0
  6  7  1  0  0  0  0
  8  9  1  0  0  0  0
 10  8  2  0  0  0  0
 11  5  1  0  0  0  0
 12 11  1  0  0  0  0
 13 14  1  0  0  0  0
 15 16  1  0  0  0  0
 16 14  1  0  0  0  0
M  END
>  <minimizedAffinity>
-5.21752453

$$$$

 OpenBabel09122220003D

 16 16  0  0  0  0  0  0  0  0999 V2000
    4.4050   -5.0970    2.8620 C   0  0  0  0  0  0  0  0  0  0  0  0
    4.3800   -6.1220    3.7240 C   0  0  0  0  0  3  0  0  0  0  0  0
    4.7770   -7.4560    3.2470 C   0  0  0  0  0  0  0  0  0  0  0  0
    4.7780   -8.4320    3.9970 O   0  0  0  0  0  0  0  0  0  0  0  0
    5.1780   -7.5940    1.8230 C   0  0  0  0  0  0  0  0  0  0  0  0
    5.1760   -6.4860    1.0730 C   0  0  0  0  0  0  0  0  0  0  0  0
    4.8230   -5.2320    1.5480 O   0  0  0  0  0  0  0  0  0  0  0  0
    5.5700   -6.5350   -0.4050 C   0  0  0  0  0  0  0  0  0  0  0  0
    6.3900   -5.6410   -0.7680 O   0  0  0  0  0  1  0  0  0  0  0  0
    5.1070   -7.5200   -1.0520 O   0  0  0  0  0  0  0  0  0  0  0  0
    5.5240   -8.8530    1.3760 O   0  0  0  0  0  0  0  0  0  0  0  0
    5.4330   -9.4300    2.1590 H   0  0  0  0  0  0  0  0  0  0  0  0
    4.0400   -3.6920    3.2440 C   0  0  0  0  0  2  0  0  0  0  0  0
    2.8060   -3.6240    3.9630 O   0  0  0  0  0  0  0  0  0  0  0  0
    3.9610   -2.6340    5.8920 C   0  0  0  0  0  1  0  0  0  0  0  0
    2.7470   -2.6190    4.9780 C   0  0  0  0  0  2  0  0  0  0  0  0
  1 13  1  0  0  0  0
  1  2  2  0  0  0  0
  3  2  1  0  0  0  0
  3  4  2  0  0  0  0
  5  3  1  0  0  0  0
  6  7  1  0  0  0  0
  6  5  2  0  0  0  0
  7  1  1  0  0  0  0
  8  6  1  0  0  0  0
  9  8  1  0  0  0  0
 10  8  2  0  0  0  0
 11  5  1  0  0  0  0
 11 12  1  0  0  0  0
 13 14  1  0  0  0  0
 14 16  1  0  0  0  0
 16 15  1  0  0  0  0
M  END
>  <minimizedAffinity>
-5.19226503

$$$$

 OpenBabel09122220003D

 16 16  0  0  0  0  0  0  0  0999 V2000
    4.7680   -6.1790    2.7490 C   0  0  0  0  0  0  0  0  0  0  0  0
    4.0070   -7.2440    2.4630 C   0  0  0  0  0  3  0  0  0  0  0  0
    4.2270   -7.9480    1.1900 C   0  0  0  0  0  0  0  0  0  0  0  0
    3.5610   -8.9350    0.8790 O   0  0  0  0  0  0  0  0  0  0  0  0
    5.2830   -7.4300    0.2830 C   0  0  0  0  0  0  0  0  0  0  0  0
    5.9830   -6.3680    0.6960 C   0  0  0  0  0  0  0  0  0  0  0  0
    5.7780   -5.7330    1.9120 O   0  0  0  0  0  0  0  0  0  0  0  0
    7.0870   -5.7640   -0.1750 C   0  0  0  0  0  0  0  0  0  0  0  0
    6.7300   -5.4550   -1.3500 O   0  0  0  0  0  0  0  0  0  0  0  0
    8.1870   -5.5580    0.4170 O   0  0  0  0  0  1  0  0  0  0  0  0
    5.4650   -8.0800   -0.9210 O   0  0  0  0  0  0  0  0  0  0  0  0
    4.8150   -8.8080   -0.9140 H   0  0  0  0  0  0  0  0  0  0  0  0
    4.6450   -5.3980    4.0250 C   0  0  0  0  0  2  0  0  0  0  0  0
    3.9690   -4.1520    3.8390 O   0  0  0  0  0  0  0  0  0  0  0  0
    2.1720   -2.7120    4.6940 C   0  0  0  0  0  1  0  0  0  0  0  0
    2.6210   -4.1130    4.3150 C   0  0  0  0  0  2  0  0  0  0  0  0
  1 13  1  0  0  0  0
  2  1  2  0  0  0  0
  3  2  1  0  0  0  0
  4  3  2  0  0  0  0
  5  6  2  0  0  0  0
  5  3  1  0  0  0  0
  6  7  1  0  0  0  0
  7  1  1  0  0  0  0
  8 10  1  0  0  0  0
  8  6  1  0  0  0  0
  9  8  2  0  0  0  0
 11 12  1  0  0  0  0
 11  5  1  0  0  0  0
 14 13  1  0  0  0  0
 14 16  1  0  0  0  0
 16 15  1  0  0  0  0
M  END
>  <minimizedAffinity>
-5.15193892

$$$$

 OpenBabel09122220003D

 16 16  0  0  0  0  0  0  0  0999 V2000
    5.0860   -5.0880    2.7460 C   0  0  0  0  0  0  0  0  0  0  0  0
    5.0760   -6.0600    1.8230 C   0  0  0  0  0  3  0  0  0  0  0  0
    6.2760   -6.2600    0.9950 C   0  0  0  0  0  0  0  0  0  0  0  0
    6.3220   -7.1410    0.1370 O   0  0  0  0  0  0  0  0  0  0  0  0
    7.4360   -5.3620    1.2240 C   0  0  0  0  0  0  0  0  0  0  0  0
    7.3220   -4.4430    2.1900 C   0  0  0  0  0  0  0  0  0  0  0  0
    6.1910   -4.2870    2.9780 O   0  0  0  0  0  0  0  0  0  0  0  0
    8.4660   -3.4720    2.4920 C   0  0  0  0  0  0  0  0  0  0  0  0
    8.9200   -2.8530    1.4860 O   0  0  0  0  0  0  0  0  0  0  0  0
    8.7440   -3.3360    3.7200 O   0  0  0  0  0  1  0  0  0  0  0  0
    8.5470   -5.5390    0.4250 O   0  0  0  0  0  0  0  0  0  0  0  0
    8.3180   -6.2850   -0.1610 H   0  0  0  0  0  0  0  0  0  0  0  0
    3.9280   -4.8080    3.6580 C   0  0  0  0  0  2  0  0  0  0  0  0
    3.4280   -3.4760    3.5130 O   0  0  0  0  0  0  0  0  0  0  0  0
    3.9060   -2.6050    5.7600 C   0  0  0  0  0  1  0  0  0  0  0  0
    2.8640   -2.9050    4.6960 C   0  0  0  0  0  2  0  0  0  0  0  0
  1  7  1  0  0  0  0
  1 13  1  0  0  0  0
  2  1  2  0  0  0  0
  3  5  1  0  0  0  0
  3  2  1  0  0  0  0
  4  3  2  0  0  0  0
  5  6  2  0  0  0  0
  6  8  1  0  0  0  0
  6  7  1  0  0  0  0
  8 10  1  0  0  0  0
  9  8  2  0  0  0  0
 11  5  1  0  0  0  0
 12 11  1  0  0  0  0
 14 13  1  0  0  0  0
 14 16  1  0  0  0  0
 16 15  1  0  0  0  0
M  END
>  <minimizedAffinity>
-4.79516029

$$$$

 OpenBabel09122220003D

 16 16  0  0  0  0  0  0  0  0999 V2000
    4.3640   -5.2960    3.9110 C   0  0  0  0  0  0  0  0  0  0  0  0
    3.2030   -4.6290    3.9530 C   0  0  0  0  0  3  0  0  0  0  0  0
    3.1200   -3.4050    4.7660 C   0  0  0  0  0  0  0  0  0  0  0  0
    2.0800   -2.7510    4.8360 O   0  0  0  0  0  0  0  0  0  0  0  0
    4.3350   -2.9800    5.5070 C   0  0  0  0  0  0  0  0  0  0  0  0
    5.4360   -3.7270    5.3650 C   0  0  0  0  0  0  0  0  0  0  0  0
    5.5010   -4.8640    4.5730 O   0  0  0  0  0  0  0  0  0  0  0  0
    6.7310   -3.3660    6.0950 C   0  0  0  0  0  0  0  0  0  0  0  0
    6.6360   -3.3120    7.3560 O   0  0  0  0  0  1  0  0  0  0  0  0
    7.7540   -3.2660    5.3550 O   0  0  0  0  0  0  0  0  0  0  0  0
    4.2410   -1.8460    6.2880 O   0  0  0  0  0  0  0  0  0  0  0  0
    3.3240   -1.5350    6.1690 H   0  0  0  0  0  0  0  0  0  0  0  0
    4.5680   -6.5430    3.1010 C   0  0  0  0  0  2  0  0  0  0  0  0
    5.8760   -6.6140    2.5280 O   0  0  0  0  0  0  0  0  0  0  0  0
    4.8280   -6.2110    0.3440 C   0  0  0  0  0  1  0  0  0  0  0  0
    6.0200   -5.9780    1.2560 C   0  0  0  0  0  2  0  0  0  0  0  0
  1  2  2  0  0  0  0
  1  7  1  0  0  0  0
  2  3  1  0  0  0  0
  3  4  2  0  0  0  0
  3  5  1  0  0  0  0
  5 11  1  0  0  0  0
  6  5  2  0  0  0  0
  6  8  1  0  0  0  0
  7  6  1  0  0  0  0
  8  9  1  0  0  0  0
 10  8  2  0  0  0  0
 12 11  1  0  0  0  0
 13  1  1  0  0  0  0
 14 13  1  0  0  0  0
 15 16  1  0  0  0  0
 16 14  1  0  0  0  0
M  END
>  <minimizedAffinity>
-4.78321266

$$$$

 OpenBabel09122220003D

 16 16  0  0  0  0  0  0  0  0999 V2000
    4.6370   -4.7510    2.9430 C   0  0  0  0  0  0  0  0  0  0  0  0
    5.8160   -4.1410    3.1280 C   0  0  0  0  0  3  0  0  0  0  0  0
    6.9570   -4.5410    2.2890 C   0  0  0  0  0  0  0  0  0  0  0  0
    8.0610   -4.0100    2.4130 O   0  0  0  0  0  0  0  0  0  0  0  0
    6.7390   -5.6110    1.2830 C   0  0  0  0  0  0  0  0  0  0  0  0
    5.5070   -6.1250    1.1880 C   0  0  0  0  0  0  0  0  0  0  0  0
    4.4370   -5.7170    1.9710 O   0  0  0  0  0  0  0  0  0  0  0  0
    5.1920   -7.2350    0.1830 C   0  0  0  0  0  0  0  0  0  0  0  0
    5.5820   -7.0080   -1.0010 O   0  0  0  0  0  0  0  0  0  0  0  0
    4.6740   -8.2780    0.6780 O   0  0  0  0  0  1  0  0  0  0  0  0
    7.8200   -5.9980    0.5180 O   0  0  0  0  0  0  0  0  0  0  0  0
    8.5560   -5.4320    0.8210 H   0  0  0  0  0  0  0  0  0  0  0  0
    3.4030   -4.4100    3.7260 C   0  0  0  0  0  2  0  0  0  0  0  0
    3.4050   -3.0570    4.1880 O   0  0  0  0  0  0  0  0  0  0  0  0
    2.2910   -1.8460    6.0110 C   0  0  0  0  0  1  0  0  0  0  0  0
    2.1540   -2.5820    4.6890 C   0  0  0  0  0  2  0  0  0  0  0  0
  1  2  2  0  0  0  0
  1 13  1  0  0  0  0
  3  4  2  0  0  0  0
  3  2  1  0  0  0  0
  5  3  1  0  0  0  0
  6  5  2  0  0  0  0
  6  7  1  0  0  0  0
  7  1  1  0  0  0  0
  8 10  1  0  0  0  0
  8  6  1  0  0  0  0
  9  8  2  0  0  0  0
 11 12  1  0  0  0  0
 11  5  1  0  0  0  0
 13 14  1  0  0  0  0
 14 16  1  0  0  0  0
 16 15  1  0  0  0  0
M  END
>  <minimizedAffinity>
-4.7056942

$$$$

 OpenBabel09122220003D

 16 16  0  0  0  0  0  0  0  0999 V2000
    5.9530   -6.3850    1.8430 C   0  0  0  0  0  0  0  0  0  0  0  0
    5.1690   -7.4480    1.6190 C   0  0  0  0  0  3  0  0  0  0  0  0
    4.0460   -7.7030    2.5360 C   0  0  0  0  0  0  0  0  0  0  0  0
    3.2910   -8.6610    2.3740 O   0  0  0  0  0  0  0  0  0  0  0  0
    3.8490   -6.7660    3.6710 C   0  0  0  0  0  0  0  0  0  0  0  0
    4.6940   -5.7330    3.7700 C   0  0  0  0  0  0  0  0  0  0  0  0
    5.7310   -5.4950    2.8800 O   0  0  0  0  0  0  0  0  0  0  0  0
    4.5690   -4.7200    4.9100 C   0  0  0  0  0  0  0  0  0  0  0  0
    4.6980   -5.2060    6.0720 O   0  0  0  0  0  1  0  0  0  0  0  0
    4.4530   -3.5130    4.5460 O   0  0  0  0  0  0  0  0  0  0  0  0
    2.8100   -7.0260    4.5410 O   0  0  0  0  0  0  0  0  0  0  0  0
    2.3860   -7.8320    4.1900 H   0  0  0  0  0  0  0  0  0  0  0  0
    7.1120   -6.0180    0.9630 C   0  0  0  0  0  2  0  0  0  0  0  0
    6.7120   -5.7490   -0.3830 O   0  0  0  0  0  0  0  0  0  0  0  0
    8.7400   -4.3660   -0.3160 C   0  0  0  0  0  1  0  0  0  0  0  0
    7.6520   -5.0050   -1.1620 C   0  0  0  0  0  2  0  0  0  0  0  0
  1  7  1  0  0  0  0
  2  1  2  0  0  0  0
  2  3  1  0  0  0  0
  3  5  1  0  0  0  0
  4  3  2  0  0  0  0
  5  6  2  0  0  0  0
  5 11  1  0  0  0  0
  6  8  1  0  0  0  0
  7  6  1  0  0  0  0
  8  9  1  0  0  0  0
 10  8  2  0  0  0  0
 12 11  1  0  0  0  0
 13  1  1  0  0  0  0
 14 13  1  0  0  0  0
 16 14  1  0  0  0  0
 16 15  1  0  0  0  0
M  END
>  <minimizedAffinity>
-4.632339

$$$$

 OpenBabel09122220003D

 16 16  0  0  0  0  0  0  0  0999 V2000
    4.9780   -5.7140    2.3080 C   0  0  0  0  0  0  0  0  0  0  0  0
    4.5910   -4.4540    2.5460 C   0  0  0  0  0  3  0  0  0  0  0  0
    3.6370   -4.2020    3.6390 C   0  0  0  0  0  0  0  0  0  0  0  0
    3.2520   -3.0640    3.9040 O   0  0  0  0  0  0  0  0  0  0  0  0
    3.1470   -5.3690    4.4150 C   0  0  0  0  0  0  0  0  0  0  0  0
    3.6270   -6.5740    4.0860 C   0  0  0  0  0  0  0  0  0  0  0  0
    4.5460   -6.7870    3.0700 O   0  0  0  0  0  0  0  0  0  0  0  0
    3.1750   -7.8320    4.8300 C   0  0  0  0  0  0  0  0  0  0  0  0
    4.1050   -8.4860    5.3870 O   0  0  0  0  0  1  0  0  0  0  0  0
    1.9220   -8.0050    4.8800 O   0  0  0  0  0  0  0  0  0  0  0  0
    2.2330   -5.1280    5.4210 O   0  0  0  0  0  0  0  0  0  0  0  0
    2.1000   -4.1610    5.4120 H   0  0  0  0  0  0  0  0  0  0  0  0
    5.9600   -6.0840    1.2350 C   0  0  0  0  0  2  0  0  0  0  0  0
    7.2980   -5.6990    1.5630 O   0  0  0  0  0  0  0  0  0  0  0  0
    7.3400   -5.2720   -0.8550 C   0  0  0  0  0  1  0  0  0  0  0  0
    8.0630   -5.1710    0.4770 C   0  0  0  0  0  2  0  0  0  0  0  0
  1  2  2  0  0  0  0
  1  7  1  0  0  0  0
  2  3  1  0  0  0  0
  3  4  2  0  0  0  0
  3  5  1  0  0  0  0
  5 11  1  0  0  0  0
  6  5  2  0  0  0  0
  6  8  1  0  0  0  0
  7  6  1  0  0  0  0
  8 10  2  0  0  0  0
  8  9  1  0  0  0  0
 12 11  1  0  0  0  0
 13 14  1  0  0  0  0
 13  1  1  0  0  0  0
 15 16  1  0  0  0  0
 16 14  1  0  0  0  0
M  END
>  <minimizedAffinity>
-4.54589367

$$$$

 OpenBabel09122220003D

 16 16  0  0  0  0  0  0  0  0999 V2000
    4.6700   -4.7970    3.7150 C   0  0  0  0  0  0  0  0  0  0  0  0
    3.5400   -4.0850    3.6070 C   0  0  0  0  0  3  0  0  0  0  0  0
    3.2550   -3.0550    4.6190 C   0  0  0  0  0  0  0  0  0  0  0  0
    2.2360   -2.3680    4.5650 O   0  0  0  0  0  0  0  0  0  0  0  0
    4.2390   -2.8680    5.7150 C   0  0  0  0  0  0  0  0  0  0  0  0
    5.3360   -3.6330    5.6960 C   0  0  0  0  0  0  0  0  0  0  0  0
    5.5990   -4.5820    4.7190 O   0  0  0  0  0  0  0  0  0  0  0  0
    6.4010   -3.5110    6.7880 C   0  0  0  0  0  0  0  0  0  0  0  0
    6.9640   -2.3800    6.8610 O   0  0  0  0  0  0  0  0  0  0  0  0
    6.5130   -4.5210    7.5440 O   0  0  0  0  0  1  0  0  0  0  0  0
    3.9520   -1.9180    6.6750 O   0  0  0  0  0  0  0  0  0  0  0  0
    3.0980   -1.5340    6.3990 H   0  0  0  0  0  0  0  0  0  0  0  0
    5.0710   -5.8570    2.7310 C   0  0  0  0  0  2  0  0  0  0  0  0
    5.4380   -7.0840    3.3680 O   0  0  0  0  0  0  0  0  0  0  0  0
    3.4460   -8.2910    4.1490 C   0  0  0  0  0  1  0  0  0  0  0  0
    4.5600   -8.1850    3.1210 C   0  0  0  0  0  2  0  0  0  0  0  0
  1  7  1  0  0  0  0
  2  1  2  0  0  0  0
  2  3  1  0  0  0  0
  3  5  1  0  0  0  0
  4  3  2  0  0  0  0
  5 11  1  0  0  0  0
  6  5  2  0  0  0  0
  6  8  1  0  0  0  0
  7  6  1  0  0  0  0
  8  9  2  0  0  0  0
  8 10  1  0  0  0  0
 12 11  1  0  0  0  0
 13 14  1  0  0  0  0
 13  1  1  0  0  0  0
 16 14  1  0  0  0  0
 16 15  1  0  0  0  0
M  END
>  <minimizedAffinity>
-4.51059818

$$$$

 OpenBabel09122220003D

 16 16  0  0  0  0  0  0  0  0999 V2000
    2.6940   -6.2570    4.8360 C   0  0  0  0  0  0  0  0  0  0  0  0
    2.0680   -5.1210    5.1690 C   0  0  0  0  0  3  0  0  0  0  0  0
    2.5120   -3.8610    4.5520 C   0  0  0  0  0  0  0  0  0  0  0  0
    1.9680   -2.7900    4.8180 O   0  0  0  0  0  0  0  0  0  0  0  0
    3.6440   -3.9200    3.5920 C   0  0  0  0  0  0  0  0  0  0  0  0
    4.1700   -5.1220    3.3330 C   0  0  0  0  0  0  0  0  0  0  0  0
    3.7200   -6.3020    3.9060 O   0  0  0  0  0  0  0  0  0  0  0  0
    5.3420   -5.2760    2.3610 C   0  0  0  0  0  0  0  0  0  0  0  0
    5.0700   -5.8960    1.2910 O   0  0  0  0  0  0  0  0  0  0  0  0
    6.4050   -4.6790    2.7020 O   0  0  0  0  0  1  0  0  0  0  0  0
    4.0720   -2.7310    3.0370 O   0  0  0  0  0  0  0  0  0  0  0  0
    3.4840   -2.0510    3.4180 H   0  0  0  0  0  0  0  0  0  0  0  0
    2.3130   -7.6000    5.3870 C   0  0  0  0  0  2  0  0  0  0  0  0
    1.0850   -8.0860    4.8390 O   0  0  0  0  0  0  0  0  0  0  0  0
   -1.1200   -7.1260    5.3380 C   0  0  0  0  0  1  0  0  0  0  0  0
   -0.0240   -8.0970    5.7420 C   0  0  0  0  0  2  0  0  0  0  0  0
  1  2  2  0  0  0  0
  1 13  1  0  0  0  0
  3  4  2  0  0  0  0
  3  2  1  0  0  0  0
  5  3  1  0  0  0  0
  6  5  2  0  0  0  0
  6  7  1  0  0  0  0
  7  1  1  0  0  0  0
  8 10  1  0  0  0  0
  8  6  1  0  0  0  0
  9  8  2  0  0  0  0
 11 12  1  0  0  0  0
 11  5  1  0  0  0  0
 14 13  1  0  0  0  0
 14 16  1  0  0  0  0
 15 16  1  0  0  0  0
M  END
>  <minimizedAffinity>
-4.47877884

$$$$
