
 OpenBabel09122222393D

 16 16  0  0  0  0  0  0  0  0999 V2000
    5.9530   -6.3850    1.8430 C   0  0  0  0  0  0  0  0  0  0  0  0
    5.1690   -7.4480    1.6190 C   0  0  0  0  0  3  0  0  0  0  0  0
    4.0460   -7.7030    2.5360 C   0  0  0  0  0  0  0  0  0  0  0  0
    3.2910   -8.6610    2.3740 O   0  0  0  0  0  0  0  0  0  0  0  0
    3.8490   -6.7660    3.6710 C   0  0  0  0  0  0  0  0  0  0  0  0
    4.6940   -5.7330    3.7700 C   0  0  0  0  0  0  0  0  0  0  0  0
    5.7310   -5.4950    2.8800 O   0  0  0  0  0  0  0  0  0  0  0  0
    4.5690   -4.7200    4.9100 C   0  0  0  0  0  0  0  0  0  0  0  0
    4.6980   -5.2060    6.0720 O   0  0  0  0  0  1  0  0  0  0  0  0
    4.4530   -3.5130    4.5460 O   0  0  0  0  0  0  0  0  0  0  0  0
    2.8100   -7.0260    4.5410 O   0  0  0  0  0  0  0  0  0  0  0  0
    2.3860   -7.8320    4.1900 H   0  0  0  0  0  0  0  0  0  0  0  0
    7.1120   -6.0180    0.9630 C   0  0  0  0  0  2  0  0  0  0  0  0
    6.7120   -5.7490   -0.3830 O   0  0  0  0  0  0  0  0  0  0  0  0
    8.7400   -4.3660   -0.3160 C   0  0  0  0  0  1  0  0  0  0  0  0
    7.6520   -5.0050   -1.1620 C   0  0  0  0  0  2  0  0  0  0  0  0
  1  7  1  0  0  0  0
  2  1  2  0  0  0  0
  2  3  1  0  0  0  0
  3  5  1  0  0  0  0
  4  3  2  0  0  0  0
  5  6  2  0  0  0  0
  5 11  1  0  0  0  0
  6  8  1  0  0  0  0
  7  6  1  0  0  0  0
  8  9  1  0  0  0  0
 10  8  2  0  0  0  0
 12 11  1  0  0  0  0
 13  1  1  0  0  0  0
 14 13  1  0  0  0  0
 16 14  1  0  0  0  0
 16 15  1  0  0  0  0
M  END
>  <minimizedAffinity>
-4.632339

$$$$
