
 OpenBabel09122222393D

 16 16  0  0  0  0  0  0  0  0999 V2000
    4.4050   -5.0970    2.8620 C   0  0  0  0  0  0  0  0  0  0  0  0
    4.3800   -6.1220    3.7240 C   0  0  0  0  0  3  0  0  0  0  0  0
    4.7770   -7.4560    3.2470 C   0  0  0  0  0  0  0  0  0  0  0  0
    4.7780   -8.4320    3.9970 O   0  0  0  0  0  0  0  0  0  0  0  0
    5.1780   -7.5940    1.8230 C   0  0  0  0  0  0  0  0  0  0  0  0
    5.1760   -6.4860    1.0730 C   0  0  0  0  0  0  0  0  0  0  0  0
    4.8230   -5.2320    1.5480 O   0  0  0  0  0  0  0  0  0  0  0  0
    5.5700   -6.5350   -0.4050 C   0  0  0  0  0  0  0  0  0  0  0  0
    6.3900   -5.6410   -0.7680 O   0  0  0  0  0  1  0  0  0  0  0  0
    5.1070   -7.5200   -1.0520 O   0  0  0  0  0  0  0  0  0  0  0  0
    5.5240   -8.8530    1.3760 O   0  0  0  0  0  0  0  0  0  0  0  0
    5.4330   -9.4300    2.1590 H   0  0  0  0  0  0  0  0  0  0  0  0
    4.0400   -3.6920    3.2440 C   0  0  0  0  0  2  0  0  0  0  0  0
    2.8060   -3.6240    3.9630 O   0  0  0  0  0  0  0  0  0  0  0  0
    3.9610   -2.6340    5.8920 C   0  0  0  0  0  1  0  0  0  0  0  0
    2.7470   -2.6190    4.9780 C   0  0  0  0  0  2  0  0  0  0  0  0
  1 13  1  0  0  0  0
  1  2  2  0  0  0  0
  3  2  1  0  0  0  0
  3  4  2  0  0  0  0
  5  3  1  0  0  0  0
  6  7  1  0  0  0  0
  6  5  2  0  0  0  0
  7  1  1  0  0  0  0
  8  6  1  0  0  0  0
  9  8  1  0  0  0  0
 10  8  2  0  0  0  0
 11  5  1  0  0  0  0
 11 12  1  0  0  0  0
 13 14  1  0  0  0  0
 14 16  1  0  0  0  0
 16 15  1  0  0  0  0
M  END
>  <minimizedAffinity>
-5.19226503

$$$$
