
 OpenBabel09122222393D

 16 16  0  0  0  0  0  0  0  0999 V2000
    4.6370   -4.7510    2.9430 C   0  0  0  0  0  0  0  0  0  0  0  0
    5.8160   -4.1410    3.1280 C   0  0  0  0  0  3  0  0  0  0  0  0
    6.9570   -4.5410    2.2890 C   0  0  0  0  0  0  0  0  0  0  0  0
    8.0610   -4.0100    2.4130 O   0  0  0  0  0  0  0  0  0  0  0  0
    6.7390   -5.6110    1.2830 C   0  0  0  0  0  0  0  0  0  0  0  0
    5.5070   -6.1250    1.1880 C   0  0  0  0  0  0  0  0  0  0  0  0
    4.4370   -5.7170    1.9710 O   0  0  0  0  0  0  0  0  0  0  0  0
    5.1920   -7.2350    0.1830 C   0  0  0  0  0  0  0  0  0  0  0  0
    5.5820   -7.0080   -1.0010 O   0  0  0  0  0  0  0  0  0  0  0  0
    4.6740   -8.2780    0.6780 O   0  0  0  0  0  1  0  0  0  0  0  0
    7.8200   -5.9980    0.5180 O   0  0  0  0  0  0  0  0  0  0  0  0
    8.5560   -5.4320    0.8210 H   0  0  0  0  0  0  0  0  0  0  0  0
    3.4030   -4.4100    3.7260 C   0  0  0  0  0  2  0  0  0  0  0  0
    3.4050   -3.0570    4.1880 O   0  0  0  0  0  0  0  0  0  0  0  0
    2.2910   -1.8460    6.0110 C   0  0  0  0  0  1  0  0  0  0  0  0
    2.1540   -2.5820    4.6890 C   0  0  0  0  0  2  0  0  0  0  0  0
  1  2  2  0  0  0  0
  1 13  1  0  0  0  0
  3  4  2  0  0  0  0
  3  2  1  0  0  0  0
  5  3  1  0  0  0  0
  6  5  2  0  0  0  0
  6  7  1  0  0  0  0
  7  1  1  0  0  0  0
  8 10  1  0  0  0  0
  8  6  1  0  0  0  0
  9  8  2  0  0  0  0
 11 12  1  0  0  0  0
 11  5  1  0  0  0  0
 13 14  1  0  0  0  0
 14 16  1  0  0  0  0
 16 15  1  0  0  0  0
M  END
>  <minimizedAffinity>
-4.7056942

$$$$
