
 OpenBabel09132204463D

 34 36  0  0  0  0  0  0  0  0999 V2000
    9.8030   -0.4950    5.5220 C   0  0  0  0  0  0  0  0  0  0  0  0
   10.5700    0.6020    5.6890 C   0  0  0  0  0  2  0  0  0  0  0  0
   10.9310    1.5540    4.6380 C   0  0  0  0  0  0  0  0  0  0  0  0
   12.1310    2.2660    4.7280 C   0  0  0  0  0  3  0  0  0  0  0  0
   12.4880    3.1660    3.7220 C   0  0  0  0  0  3  0  0  0  0  0  0
   11.6530    3.3490    2.6180 C   0  0  0  0  0  0  0  0  0  0  0  0
   10.4400    2.6590    2.5350 C   0  0  0  0  0  3  0  0  0  0  0  0
   10.0850    1.7600    3.5420 C   0  0  0  0  0  3  0  0  0  0  0  0
   12.0610    4.2770    1.6860 O   0  0  0  0  0  0  0  0  0  0  0  0
   11.1280    5.2010    1.2720 C   0  0  0  0  0  0  0  0  0  0  0  0
   10.2820    4.9150    0.1930 C   0  0  0  0  0  3  0  0  0  0  0  0
    9.3670    5.8730   -0.2480 C   0  0  0  0  0  3  0  0  0  0  0  0
    9.3030    7.1180    0.3790 C   0  0  0  0  0  3  0  0  0  0  0  0
   10.1610    7.4130    1.4400 C   0  0  0  0  0  3  0  0  0  0  0  0
   11.0810    6.4590    1.8800 C   0  0  0  0  0  0  0  0  0  0  0  0
   12.2340    6.9090    3.3160 Br  0  0  0  0  0  0  0  0  0  0  0  0
   10.6430   -2.6490    3.6830 O   0  0  0  0  0  0  0  0  0  0  0  0
    9.6950   -1.8960    3.4890 C   0  0  0  0  0  0  0  0  0  0  0  0
    9.2880   -0.8410    4.2840 N   0  0  0  0  0  4  0  0  0  0  0  0
    8.5210   -0.2740    3.9520 H   0  0  0  0  0  0  0  0  0  0  0  0
    8.8680   -2.0220    2.2160 C   0  0  0  0  0  2  0  0  0  0  0  0
    9.5990   -1.6420    0.9450 C   0  0  0  0  0  0  0  0  0  0  0  0
   10.2490   -2.6220    0.1840 C   0  0  0  0  0  3  0  0  0  0  0  0
   10.9230   -2.2760   -0.9900 C   0  0  0  0  0  3  0  0  0  0  0  0
   10.9620   -0.9430   -1.4250 C   0  0  0  0  0  0  0  0  0  0  0  0
   10.2970    0.0340   -0.6710 C   0  0  0  0  0  3  0  0  0  0  0  0
    9.6190   -0.3130    0.4990 C   0  0  0  0  0  3  0  0  0  0  0  0
   11.6730   -0.5650   -2.6990 C   0  0  0  0  0  0  0  0  0  0  0  0
   12.6100   -1.4750   -3.0920 F   0  0  0  0  0  0  0  0  0  0  0  0
   10.8180   -0.4430   -3.7540 F   0  0  0  0  0  0  0  0  0  0  0  0
   12.3290    0.6250   -2.6140 F   0  0  0  0  0  0  0  0  0  0  0  0
    9.5490   -1.2820    6.8470 C   0  0  0  0  0  0  0  0  0  0  0  0
    8.5570   -0.8700    7.5190 O   0  0  0  0  0  1  0  0  0  0  0  0
   10.4530   -2.1180    7.1470 O   0  0  0  0  0  0  0  0  0  0  0  0
  1  2  1  0  0  0  0
  1 32  1  0  0  0  0
  3  4  1  0  0  0  0
  3  2  1  0  0  0  0
  5  4  2  0  0  0  0
  6  5  1  0  0  0  0
  7  6  2  0  0  0  0
  7  8  1  0  0  0  0
  8  3  2  0  0  0  0
  9  6  1  0  0  0  0
 10  9  1  0  0  0  0
 10 15  1  0  0  0  0
 11 10  2  0  0  0  0
 12 11  1  0  0  0  0
 12 13  2  0  0  0  0
 13 14  1  0  0  0  0
 14 15  2  0  0  0  0
 15 16  1  0  0  0  0
 18 17  2  0  0  0  0
 18 19  1  0  0  0  0
 19  1  2  0  0  0  0
 20 19  1  0  0  0  0
 21 18  1  0  0  0  0
 22 21  1  0  0  0  0
 23 22  2  0  0  0  0
 24 23  1  0  0  0  0
 25 24  2  0  0  0  0
 25 26  1  0  0  0  0
 26 27  2  0  0  0  0
 27 22  1  0  0  0  0
 28 31  1  0  0  0  0
 28 25  1  0  0  0  0
 29 28  1  0  0  0  0
 30 28  1  0  0  0  0
 32 34  2  0  0  0  0
 32 33  1  0  0  0  0
M  END
>  <minimizedAffinity>
-7.25542116

$$$$
