
 OpenBabel09132204463D

 34 36  0  0  0  0  0  0  0  0999 V2000
   10.1110    0.0010    5.7650 C   0  0  0  0  0  0  0  0  0  0  0  0
    9.5680   -0.4250    6.9240 C   0  0  0  0  0  2  0  0  0  0  0  0
    8.3110   -1.1630    7.0530 C   0  0  0  0  0  0  0  0  0  0  0  0
    7.1680   -0.5110    7.5260 C   0  0  0  0  0  3  0  0  0  0  0  0
    5.9620   -1.2060    7.6400 C   0  0  0  0  0  3  0  0  0  0  0  0
    5.8920   -2.5510    7.2700 C   0  0  0  0  0  0  0  0  0  0  0  0
    7.0370   -3.2140    6.8200 C   0  0  0  0  0  3  0  0  0  0  0  0
    8.2410   -2.5180    6.7080 C   0  0  0  0  0  3  0  0  0  0  0  0
    4.6750   -3.1730    7.4410 O   0  0  0  0  0  0  0  0  0  0  0  0
    3.6270   -2.7200    6.6710 C   0  0  0  0  0  0  0  0  0  0  0  0
    2.8340   -1.6540    7.1160 C   0  0  0  0  0  3  0  0  0  0  0  0
    1.7480   -1.2280    6.3510 C   0  0  0  0  0  3  0  0  0  0  0  0
    1.4460   -1.8700    5.1490 C   0  0  0  0  0  3  0  0  0  0  0  0
    2.2210   -2.9470    4.7160 C   0  0  0  0  0  3  0  0  0  0  0  0
    3.3050   -3.3790    5.4820 C   0  0  0  0  0  0  0  0  0  0  0  0
    4.3210   -4.8530    4.8580 Br  0  0  0  0  0  0  0  0  0  0  0  0
   10.5670   -2.1410    3.7830 O   0  0  0  0  0  0  0  0  0  0  0  0
    9.7120   -1.2690    3.6820 C   0  0  0  0  0  0  0  0  0  0  0  0
    9.4870   -0.2140    4.5480 N   0  0  0  0  0  4  0  0  0  0  0  0
    8.7790    0.4580    4.2900 H   0  0  0  0  0  0  0  0  0  0  0  0
    8.8050   -1.2260    2.4600 C   0  0  0  0  0  2  0  0  0  0  0  0
    9.5160   -0.9470    1.1520 C   0  0  0  0  0  0  0  0  0  0  0  0
   10.0100   -2.0040    0.3760 C   0  0  0  0  0  3  0  0  0  0  0  0
   10.6650   -1.7500   -0.8310 C   0  0  0  0  0  3  0  0  0  0  0  0
   10.8420   -0.4350   -1.2860 C   0  0  0  0  0  0  0  0  0  0  0  0
   10.3320    0.6200   -0.5160 C   0  0  0  0  0  3  0  0  0  0  0  0
    9.6730    0.3660    0.6880 C   0  0  0  0  0  3  0  0  0  0  0  0
   11.5330   -0.1550   -2.5960 C   0  0  0  0  0  0  0  0  0  0  0  0
   12.7230   -0.8070   -2.7350 F   0  0  0  0  0  0  0  0  0  0  0  0
   10.7830   -0.5330   -3.6700 F   0  0  0  0  0  0  0  0  0  0  0  0
   11.8120    1.1650   -2.7830 F   0  0  0  0  0  0  0  0  0  0  0  0
   11.4890    0.7110    5.9500 C   0  0  0  0  0  0  0  0  0  0  0  0
   11.7750    1.5450    5.0390 O   0  0  0  0  0  0  0  0  0  0  0  0
   12.2000    0.2500    6.8920 O   0  0  0  0  0  1  0  0  0  0  0  0
  1 32  1  0  0  0  0
  1  2  1  0  0  0  0
  2  3  1  0  0  0  0
  3  4  1  0  0  0  0
  4  5  2  0  0  0  0
  6  9  1  0  0  0  0
  6  5  1  0  0  0  0
  7  6  2  0  0  0  0
  8  7  1  0  0  0  0
  8  3  2  0  0  0  0
 10 11  1  0  0  0  0
 10  9  1  0  0  0  0
 12 11  2  0  0  0  0
 13 12  1  0  0  0  0
 14 13  2  0  0  0  0
 14 15  1  0  0  0  0
 15 10  2  0  0  0  0
 16 15  1  0  0  0  0
 18 17  2  0  0  0  0
 18 19  1  0  0  0  0
 19  1  2  0  0  0  0
 20 19  1  0  0  0  0
 21 18  1  0  0  0  0
 22 21  1  0  0  0  0
 23 22  2  0  0  0  0
 24 23  1  0  0  0  0
 25 24  2  0  0  0  0
 25 26  1  0  0  0  0
 26 27  2  0  0  0  0
 27 22  1  0  0  0  0
 28 25  1  0  0  0  0
 29 28  1  0  0  0  0
 30 28  1  0  0  0  0
 31 28  1  0  0  0  0
 32 34  1  0  0  0  0
 33 32  2  0  0  0  0
M  END
>  <minimizedAffinity>
-6.9136591

$$$$
