
 OpenBabel09132204463D

 34 36  0  0  0  0  0  0  0  0999 V2000
   10.0320   -1.3110    5.5270 C   0  0  0  0  0  0  0  0  0  0  0  0
    9.5140   -2.1700    4.6260 C   0  0  0  0  0  2  0  0  0  0  0  0
    9.6730   -2.0760    3.1740 C   0  0  0  0  0  0  0  0  0  0  0  0
   10.5260   -2.9610    2.5090 C   0  0  0  0  0  3  0  0  0  0  0  0
   10.6720   -2.8860    1.1220 C   0  0  0  0  0  3  0  0  0  0  0  0
    9.9560   -1.9320    0.3950 C   0  0  0  0  0  0  0  0  0  0  0  0
    9.1210   -1.0280    1.0560 C   0  0  0  0  0  3  0  0  0  0  0  0
    8.9770   -1.1060    2.4430 C   0  0  0  0  0  3  0  0  0  0  0  0
   10.1780   -1.9020   -0.9640 O   0  0  0  0  0  0  0  0  0  0  0  0
   11.0910   -0.9820   -1.4290 C   0  0  0  0  0  0  0  0  0  0  0  0
   10.7690    0.3800   -1.4570 C   0  0  0  0  0  3  0  0  0  0  0  0
   11.6830    1.3020   -1.9690 C   0  0  0  0  0  3  0  0  0  0  0  0
   12.9130    0.8650   -2.4610 C   0  0  0  0  0  3  0  0  0  0  0  0
   13.2280   -0.4950   -2.4550 C   0  0  0  0  0  3  0  0  0  0  0  0
   12.3120   -1.4200   -1.9490 C   0  0  0  0  0  0  0  0  0  0  0  0
   12.7790   -3.2580   -1.9730 Br  0  0  0  0  0  0  0  0  0  0  0  0
    9.5100    1.5560    6.0110 O   0  0  0  0  0  0  0  0  0  0  0  0
   10.5000    1.1140    5.4390 C   0  0  0  0  0  0  0  0  0  0  0  0
   10.7720   -0.2070    5.1380 N   0  0  0  0  0  4  0  0  0  0  0  0
   11.6080   -0.4020    4.6050 H   0  0  0  0  0  0  0  0  0  0  0  0
   11.5590    2.0670    4.9010 C   0  0  0  0  0  2  0  0  0  0  0  0
   11.1200    2.8980    3.7120 C   0  0  0  0  0  0  0  0  0  0  0  0
   10.5220    2.2840    2.6050 C   0  0  0  0  0  3  0  0  0  0  0  0
   10.1140    3.0470    1.5070 C   0  0  0  0  0  3  0  0  0  0  0  0
   10.2990    4.4370    1.4950 C   0  0  0  0  0  0  0  0  0  0  0  0
   10.8840    5.0510    2.6120 C   0  0  0  0  0  3  0  0  0  0  0  0
   11.2860    4.2890    3.7110 C   0  0  0  0  0  3  0  0  0  0  0  0
    9.8470    5.2680    0.3220 C   0  0  0  0  0  0  0  0  0  0  0  0
    9.2290    6.4300    0.6820 F   0  0  0  0  0  0  0  0  0  0  0  0
   10.8840    5.6410   -0.4810 F   0  0  0  0  0  0  0  0  0  0  0  0
    8.9660    4.6180   -0.4880 F   0  0  0  0  0  0  0  0  0  0  0  0
    9.7360   -1.7120    7.0070 C   0  0  0  0  0  0  0  0  0  0  0  0
    8.5280   -1.5610    7.3590 O   0  0  0  0  0  0  0  0  0  0  0  0
   10.7630   -1.9850    7.6970 O   0  0  0  0  0  1  0  0  0  0  0  0
  1 32  1  0  0  0  0
  2  1  1  0  0  0  0
  3  2  1  0  0  0  0
  4  3  1  0  0  0  0
  5  4  2  0  0  0  0
  6  7  2  0  0  0  0
  6  5  1  0  0  0  0
  7  8  1  0  0  0  0
  8  3  2  0  0  0  0
  9  6  1  0  0  0  0
 10  9  1  0  0  0  0
 11 10  1  0  0  0  0
 12 11  2  0  0  0  0
 13 14  2  0  0  0  0
 13 12  1  0  0  0  0
 14 15  1  0  0  0  0
 15 10  2  0  0  0  0
 16 15  1  0  0  0  0
 18 17  2  0  0  0  0
 19 18  1  0  0  0  0
 19  1  2  0  0  0  0
 20 19  1  0  0  0  0
 21 18  1  0  0  0  0
 22 21  1  0  0  0  0
 23 22  2  0  0  0  0
 24 23  1  0  0  0  0
 25 24  2  0  0  0  0
 25 26  1  0  0  0  0
 26 27  2  0  0  0  0
 27 22  1  0  0  0  0
 28 29  1  0  0  0  0
 28 25  1  0  0  0  0
 30 28  1  0  0  0  0
 31 28  1  0  0  0  0
 32 33  2  0  0  0  0
 32 34  1  0  0  0  0
M  END
>  <minimizedAffinity>
-8.10412407

$$$$
