
 OpenBabel09132204463D

 34 36  0  0  0  0  0  0  0  0999 V2000
    9.8840   -0.5500    5.2180 C   0  0  0  0  0  0  0  0  0  0  0  0
    9.3790   -1.5210    4.4300 C   0  0  0  0  0  2  0  0  0  0  0  0
    9.6020   -1.6480    2.9890 C   0  0  0  0  0  0  0  0  0  0  0  0
    9.1380   -0.6540    2.1230 C   0  0  0  0  0  3  0  0  0  0  0  0
    9.3590   -0.7630    0.7490 C   0  0  0  0  0  3  0  0  0  0  0  0
   10.0550   -1.8600    0.2370 C   0  0  0  0  0  0  0  0  0  0  0  0
   10.5000   -2.8690    1.0950 C   0  0  0  0  0  3  0  0  0  0  0  0
   10.2780   -2.7580    2.4690 C   0  0  0  0  0  3  0  0  0  0  0  0
   10.2050   -1.9090   -1.1310 O   0  0  0  0  0  0  0  0  0  0  0  0
   11.4910   -1.9560   -1.6190 C   0  0  0  0  0  0  0  0  0  0  0  0
   12.1600   -3.1810   -1.7300 C   0  0  0  0  0  3  0  0  0  0  0  0
   13.4790   -3.2160   -2.1860 C   0  0  0  0  0  3  0  0  0  0  0  0
   14.1330   -2.0300   -2.5200 C   0  0  0  0  0  3  0  0  0  0  0  0
   13.4760   -0.8060   -2.3880 C   0  0  0  0  0  3  0  0  0  0  0  0
   12.1590   -0.7670   -1.9270 C   0  0  0  0  0  0  0  0  0  0  0  0
   11.3120    0.9200   -1.7520 Br  0  0  0  0  0  0  0  0  0  0  0  0
    9.5770    2.3760    5.4880 O   0  0  0  0  0  0  0  0  0  0  0  0
   10.5060    1.8230    4.9090 C   0  0  0  0  0  0  0  0  0  0  0  0
   10.6740    0.4650    4.7060 N   0  0  0  0  0  4  0  0  0  0  0  0
   11.4660    0.1710    4.1520 H   0  0  0  0  0  0  0  0  0  0  0  0
   11.5960    2.6530    4.2460 C   0  0  0  0  0  2  0  0  0  0  0  0
   11.1110    3.5710    3.1420 C   0  0  0  0  0  0  0  0  0  0  0  0
   10.7360    3.0450    1.8990 C   0  0  0  0  0  3  0  0  0  0  0  0
   10.2870    3.8880    0.8800 C   0  0  0  0  0  3  0  0  0  0  0  0
   10.2050    5.2740    1.0820 C   0  0  0  0  0  0  0  0  0  0  0  0
   10.5650    5.7960    2.3320 C   0  0  0  0  0  3  0  0  0  0  0  0
   11.0090    4.9530    3.3530 C   0  0  0  0  0  3  0  0  0  0  0  0
    9.7060    6.1870   -0.0080 C   0  0  0  0  0  0  0  0  0  0  0  0
    9.1210    7.3270    0.4610 F   0  0  0  0  0  0  0  0  0  0  0  0
   10.7070    6.6050   -0.8340 F   0  0  0  0  0  0  0  0  0  0  0  0
    8.7780    5.6020   -0.8150 F   0  0  0  0  0  0  0  0  0  0  0  0
    9.5120   -0.7180    6.7260 C   0  0  0  0  0  0  0  0  0  0  0  0
    8.3120   -0.4240    7.0050 O   0  0  0  0  0  0  0  0  0  0  0  0
   10.4920   -0.9750    7.4860 O   0  0  0  0  0  1  0  0  0  0  0  0
  1 32  1  0  0  0  0
  2  1  1  0  0  0  0
  3  2  1  0  0  0  0
  4  3  2  0  0  0  0
  5  4  1  0  0  0  0
  6  5  2  0  0  0  0
  6  7  1  0  0  0  0
  7  8  2  0  0  0  0
  8  3  1  0  0  0  0
  9  6  1  0  0  0  0
 10  9  1  0  0  0  0
 11 10  1  0  0  0  0
 12 11  2  0  0  0  0
 13 14  2  0  0  0  0
 13 12  1  0  0  0  0
 14 15  1  0  0  0  0
 15 16  1  0  0  0  0
 15 10  2  0  0  0  0
 18 17  2  0  0  0  0
 19 18  1  0  0  0  0
 19  1  2  0  0  0  0
 20 19  1  0  0  0  0
 21 18  1  0  0  0  0
 22 27  1  0  0  0  0
 22 21  1  0  0  0  0
 23 22  2  0  0  0  0
 24 25  2  0  0  0  0
 24 23  1  0  0  0  0
 25 26  1  0  0  0  0
 26 27  2  0  0  0  0
 28 29  1  0  0  0  0
 28 25  1  0  0  0  0
 30 28  1  0  0  0  0
 31 28  1  0  0  0  0
 32 33  2  0  0  0  0
 32 34  1  0  0  0  0
M  END
>  <minimizedAffinity>
-8.2190218

$$$$
