
 OpenBabel09132204463D

 34 36  0  0  0  0  0  0  0  0999 V2000
   12.1780    5.3180    0.8670 C   0  0  0  0  0  0  0  0  0  0  0  0
   12.4770    5.2810    2.1810 C   0  0  0  0  0  2  0  0  0  0  0  0
   11.9560    4.3080    3.1440 C   0  0  0  0  0  0  0  0  0  0  0  0
   10.6290    4.3980    3.5740 C   0  0  0  0  0  3  0  0  0  0  0  0
   10.1230    3.4660    4.4820 C   0  0  0  0  0  3  0  0  0  0  0  0
   10.9380    2.4350    4.9530 C   0  0  0  0  0  0  0  0  0  0  0  0
   12.2720    2.3540    4.5460 C   0  0  0  0  0  3  0  0  0  0  0  0
   12.7770    3.2870    3.6390 C   0  0  0  0  0  3  0  0  0  0  0  0
   10.3730    1.5750    5.8690 O   0  0  0  0  0  0  0  0  0  0  0  0
   10.3430    0.2390    5.5380 C   0  0  0  0  0  0  0  0  0  0  0  0
    9.7420   -0.1790    4.3440 C   0  0  0  0  0  3  0  0  0  0  0  0
    9.6790   -1.5390    4.0350 C   0  0  0  0  0  3  0  0  0  0  0  0
   10.2030   -2.4810    4.9210 C   0  0  0  0  0  3  0  0  0  0  0  0
   10.7820   -2.0680    6.1220 C   0  0  0  0  0  3  0  0  0  0  0  0
   10.8420   -0.7090    6.4360 C   0  0  0  0  0  0  0  0  0  0  0  0
   11.6270   -0.1960    8.0850 Br  0  0  0  0  0  0  0  0  0  0  0  0
   12.7300    2.6750   -0.3300 O   0  0  0  0  0  0  0  0  0  0  0  0
   11.6140    3.1650   -0.2070 C   0  0  0  0  0  0  0  0  0  0  0  0
   11.2990    4.4140    0.2940 N   0  0  0  0  0  4  0  0  0  0  0  0
   10.3290    4.6960    0.2720 H   0  0  0  0  0  0  0  0  0  0  0  0
   10.3900    2.4100   -0.7070 C   0  0  0  0  0  2  0  0  0  0  0  0
   10.5360    0.9020   -0.7220 C   0  0  0  0  0  0  0  0  0  0  0  0
    9.8670    0.1180    0.2270 C   0  0  0  0  0  3  0  0  0  0  0  0
    9.9990   -1.2720    0.2160 C   0  0  0  0  0  3  0  0  0  0  0  0
   10.8030   -1.9070   -0.7420 C   0  0  0  0  0  0  0  0  0  0  0  0
   11.4590   -1.1210   -1.7010 C   0  0  0  0  0  3  0  0  0  0  0  0
   11.3230    0.2680   -1.6930 C   0  0  0  0  0  3  0  0  0  0  0  0
   10.9370   -3.4080   -0.7700 C   0  0  0  0  0  0  0  0  0  0  0  0
   11.5620   -3.8790   -1.8870 F   0  0  0  0  0  0  0  0  0  0  0  0
   11.6610   -3.8840    0.2820 F   0  0  0  0  0  0  0  0  0  0  0  0
    9.7390   -4.0540   -0.7200 F   0  0  0  0  0  0  0  0  0  0  0  0
   12.9370    6.4410    0.0900 C   0  0  0  0  0  0  0  0  0  0  0  0
   13.8710    6.0210   -0.6560 O   0  0  0  0  0  0  0  0  0  0  0  0
   12.6230    7.6210    0.4260 O   0  0  0  0  0  1  0  0  0  0  0  0
  1  2  1  0  0  0  0
  2  3  1  0  0  0  0
  3  4  2  0  0  0  0
  3  8  1  0  0  0  0
  4  5  1  0  0  0  0
  5  6  2  0  0  0  0
  6  9  1  0  0  0  0
  7  6  1  0  0  0  0
  8  7  2  0  0  0  0
 10  9  1  0  0  0  0
 10 15  1  0  0  0  0
 11 10  2  0  0  0  0
 12 11  1  0  0  0  0
 12 13  2  0  0  0  0
 13 14  1  0  0  0  0
 14 15  2  0  0  0  0
 15 16  1  0  0  0  0
 17 18  2  0  0  0  0
 18 19  1  0  0  0  0
 19  1  2  3  0  0  0
 20 19  1  0  0  0  0
 21 18  1  0  0  0  0
 22 21  1  0  0  0  0
 22 23  1  0  0  0  0
 24 23  2  0  0  0  0
 25 24  1  0  0  0  0
 26 27  1  0  0  0  0
 26 25  2  0  0  0  0
 27 22  2  0  0  0  0
 28 25  1  0  0  0  0
 28 31  1  0  0  0  0
 28 30  1  0  0  0  0
 29 28  1  0  0  0  0
 32 34  1  0  0  0  0
 32  1  1  0  0  0  0
 33 32  2  0  0  0  0
M  END
>  <minimizedAffinity>
-6.93830585

$$$$
