
 OpenBabel09132204463D

 35 38  0  0  1  0  0  0  0  0999 V2000
    7.7390   -2.5230    2.5430 N   0  0  0  0  0  0  0  0  0  0  0  0
    8.1240   -1.2620    2.9780 C   0  0  0  0  0  0  0  0  0  0  0  0
    7.8980   -0.8340    4.1130 O   0  0  0  0  0  0  0  0  0  0  0  0
    8.7820   -0.3340    2.0130 C   0  0  0  0  0  0  0  0  0  0  0  0
    9.1460   -0.8100    0.8120 C   0  0  2  0  0  3  0  0  0  0  0  0
    8.8940   -2.2100    0.4170 C   0  0  0  0  0  0  0  0  0  0  0  0
    9.2340   -2.6640   -0.8790 C   0  0  0  0  0  3  0  0  0  0  0  0
    9.0840   -3.9980   -1.2480 C   0  0  0  0  0  3  0  0  0  0  0  0
    8.6240   -4.9100   -0.3150 C   0  0  0  0  0  3  0  0  0  0  0  0
    8.2440   -4.4610    0.9620 C   0  0  0  0  0  0  0  0  0  0  0  0
    8.2860   -3.0960    1.3360 C   0  0  0  0  0  0  0  0  0  0  0  0
    8.9570    1.1070    2.4490 C   0  0  0  0  0  0  0  0  0  0  0  0
    8.6970    1.4610    3.6830 N   0  0  0  0  0  0  0  0  0  0  0  0
    8.8140    2.9370    4.3000 S   0  0  0  0  0  0  0  0  0  0  0  0
    7.5020    3.3680    4.7400 O   0  0  0  0  0  0  0  0  0  0  0  0
    9.9310    2.9840    5.2220 O   0  0  0  0  0  0  0  0  0  0  0  0
    9.2470    4.0090    2.9720 C   0  0  0  0  0  0  0  0  0  0  0  0
    9.3350    5.3870    3.2000 C   0  0  0  0  0  3  0  0  0  0  0  0
    9.6780    6.2290    2.1460 C   0  0  0  0  0  3  0  0  0  0  0  0
    9.9310    5.6900    0.8850 C   0  0  0  0  0  3  0  0  0  0  0  0
    9.8360    4.3100    0.6750 C   0  0  0  0  0  3  0  0  0  0  0  0
    9.4870    3.4520    1.7220 C   0  0  0  0  0  0  0  0  0  0  0  0
    9.3690    2.0840    1.5160 N   0  0  0  0  0  0  0  0  0  0  0  0
    8.3970    0.7380    4.3300 H   0  0  0  0  0  0  0  0  0  0  0  0
    9.5420    1.7260    0.5750 H   0  0  0  0  0  0  0  0  0  0  0  0
    8.0110   -5.5220    1.9240 N   0  0  0  0  0  0  0  0  0  0  0  0
    8.9910   -5.9320    2.5610 O   0  0  0  0  0  0  0  0  0  0  0  0
    6.8470   -5.9220    2.0520 O   0  0  0  0  0  0  0  0  0  0  0  0
    9.8350   -0.0020   -0.0830 O   0  0  0  0  0  0  0  0  0  0  0  0
   10.5130   -0.5430   -0.5310 H   0  0  0  0  0  0  0  0  0  0  0  0
    6.7410   -3.2350    3.3590 C   0  0  0  0  0  3  0  0  0  0  0  0
    5.2620   -2.9690    3.0020 C   0  0  0  0  0  3  0  0  0  0  0  0
    4.6900   -4.5020    4.9600 C   0  0  0  0  0  1  0  0  0  0  0  0
    4.2420   -3.9540    3.6060 C   0  0  0  0  0  3  0  0  0  0  0  0
    2.8820   -3.2640    3.7470 C   0  0  0  0  0  1  0  0  0  0  0  0
  1  2  1  0  0  0  0
  1 31  1  0  0  0  0
  2  3  2  0  0  0  0
  4 12  2  0  0  0  0
  4  2  1  0  0  0  0
  5 29  1  1  0  0  0
  5  4  1  0  0  0  0
  6  5  1  0  0  0  0
  6 11  1  0  0  0  0
  7  6  2  0  0  0  0
  8  7  1  0  0  0  0
  8  9  2  0  0  0  0
  9 10  1  0  0  0  0
 10 11  2  0  0  0  0
 10 26  1  0  0  0  0
 11  1  1  0  0  0  0
 12 13  1  0  0  0  0
 13 14  1  0  0  0  0
 13 24  1  0  0  0  0
 14 15  2  0  0  0  0
 14 16  2  0  0  0  0
 17 18  1  0  0  0  0
 17 14  1  0  0  0  0
 19 18  2  0  0  0  0
 20 19  1  0  0  0  0
 21 20  2  0  0  0  0
 21 22  1  0  0  0  0
 22 17  2  0  0  0  0
 23 22  1  0  0  0  0
 23 12  1  0  0  0  0
 25 23  1  0  0  0  0
 26 28  2  0  0  0  0
 26 27  2  0  0  0  0
 30 29  1  0  0  0  0
 32 31  2  0  0  0  0
 32 34  1  0  0  0  0
 34 35  1  0  0  0  0
 34 33  1  0  0  0  0
M  END
>  <minimizedAffinity>
15.4708252

$$$$
