
 OpenBabel09122222393D

 18 20  0  0  0  0  0  0  0  0999 V2000
    3.4030   -2.4330    5.8070 C   0  0  0  0  0  0  0  0  0  0  0  0
    3.4900   -1.5150    6.8660 C   0  0  0  0  0  3  0  0  0  0  0  0
    4.6900   -1.2720    7.5490 C   0  0  0  0  0  3  0  0  0  0  0  0
    5.8210   -1.9860    7.1370 C   0  0  0  0  0  0  0  0  0  0  0  0
    5.7750   -2.9080    6.0890 C   0  0  0  0  0  0  0  0  0  0  0  0
    4.5620   -3.1350    5.4180 C   0  0  0  0  0  3  0  0  0  0  0  0
    7.0120   -3.4750    5.8770 N   0  0  0  0  0  0  0  0  0  0  0  0
    7.7980   -2.9210    6.7680 C   0  0  0  0  0  3  0  0  0  0  0  0
    7.1310   -2.0170    7.5540 N   0  0  0  0  0  0  0  0  0  0  0  0
    7.7580   -1.2560    8.6260 C   0  0  0  0  0  3  0  0  0  0  0  0
    8.9570   -1.9860    9.2500 C   0  0  0  0  0  2  0  0  0  0  0  0
    9.5630   -1.1810   10.3990 C   0  0  0  0  0  2  0  0  0  0  0  0
    9.9240    0.2360    9.9650 C   0  0  0  0  0  2  0  0  0  0  0  0
    8.7250    0.9640    9.3640 C   0  0  0  0  0  2  0  0  0  0  0  0
    8.1120    0.1800    8.2050 C   0  0  0  0  0  2  0  0  0  0  0  0
    1.2890   -1.6750    5.0170 O   0  0  0  0  0  1  0  0  0  0  0  0
    2.0840   -2.6650    5.0960 C   0  0  0  0  0  0  0  0  0  0  0  0
    1.8680   -3.8280    4.6300 O   0  0  0  0  0  0  0  0  0  0  0  0
  1  2  1  0  0  0  0
  2  3  2  0  0  0  0
  4  3  1  0  0  0  0
  4  9  1  0  0  0  0
  5  4  2  0  0  0  0
  6  1  2  0  0  0  0
  6  5  1  0  0  0  0
  7  5  1  0  0  0  0
  7  8  2  0  0  0  0
  8  9  1  0  0  0  0
  9 10  1  0  0  0  0
 10 11  1  0  0  0  0
 11 12  1  0  0  0  0
 13 12  1  0  0  0  0
 14 13  1  0  0  0  0
 15 10  1  0  0  0  0
 15 14  1  0  0  0  0
 16 17  1  0  0  0  0
 17  1  1  0  0  0  0
 18 17  2  0  0  0  0
M  END
>  <minimizedAffinity>
-4.42018127

$$$$
