
 OpenBabel09122222393D

 18 20  0  0  0  0  0  0  0  0999 V2000
    8.2740   -1.9830    6.0110 C   0  0  0  0  0  0  0  0  0  0  0  0
    7.8380   -1.2940    7.1550 C   0  0  0  0  0  3  0  0  0  0  0  0
    6.6810   -1.6620    7.8540 C   0  0  0  0  0  3  0  0  0  0  0  0
    5.9570   -2.7570    7.3690 C   0  0  0  0  0  0  0  0  0  0  0  0
    6.3570   -3.4680    6.2360 C   0  0  0  0  0  0  0  0  0  0  0  0
    7.5210   -3.0820    5.5510 C   0  0  0  0  0  3  0  0  0  0  0  0
    5.4820   -4.4970    5.9650 N   0  0  0  0  0  0  0  0  0  0  0  0
    4.5690   -4.4230    6.9030 C   0  0  0  0  0  3  0  0  0  0  0  0
    4.8060   -3.3920    7.7740 N   0  0  0  0  0  0  0  0  0  0  0  0
    3.9500   -3.0780    8.9100 C   0  0  0  0  0  3  0  0  0  0  0  0
    2.4910   -3.5050    8.6910 C   0  0  0  0  0  2  0  0  0  0  0  0
    1.6130   -3.1200    9.8810 C   0  0  0  0  0  2  0  0  0  0  0  0
    2.1730   -3.6630   11.1920 C   0  0  0  0  0  2  0  0  0  0  0  0
    3.6160   -3.2200   11.4150 C   0  0  0  0  0  2  0  0  0  0  0  0
    4.5120   -3.6050   10.2400 C   0  0  0  0  0  2  0  0  0  0  0  0
   10.3500   -2.4670    4.9520 O   0  0  0  0  0  0  0  0  0  0  0  0
    9.5330   -1.5510    5.2850 C   0  0  0  0  0  0  0  0  0  0  0  0
    9.6800   -0.3090    5.0600 O   0  0  0  0  0  1  0  0  0  0  0  0
  1  2  1  0  0  0  0
  2  3  2  0  0  0  0
  4  9  1  0  0  0  0
  4  3  1  0  0  0  0
  5  4  2  0  0  0  0
  6  1  2  0  0  0  0
  6  5  1  0  0  0  0
  7  5  1  0  0  0  0
  7  8  2  0  0  0  0
  8  9  1  0  0  0  0
  9 10  1  0  0  0  0
 10 15  1  0  0  0  0
 11 10  1  0  0  0  0
 11 12  1  0  0  0  0
 12 13  1  0  0  0  0
 13 14  1  0  0  0  0
 15 14  1  0  0  0  0
 16 17  2  0  0  0  0
 17  1  1  0  0  0  0
 18 17  1  0  0  0  0
M  END
>  <minimizedAffinity>
-4.50658941

$$$$
