
 OpenBabel09122222393D

 18 20  0  0  0  0  0  0  0  0999 V2000
    8.1590   -2.5840    5.3430 C   0  0  0  0  0  0  0  0  0  0  0  0
    6.8790   -3.1450    5.4780 C   0  0  0  0  0  3  0  0  0  0  0  0
    5.9740   -2.7180    6.4590 C   0  0  0  0  0  3  0  0  0  0  0  0
    6.3910   -1.6950    7.3180 C   0  0  0  0  0  0  0  0  0  0  0  0
    7.6560   -1.1110    7.2160 C   0  0  0  0  0  0  0  0  0  0  0  0
    8.5460   -1.5550    6.2250 C   0  0  0  0  0  3  0  0  0  0  0  0
    7.8250   -0.1330    8.1700 N   0  0  0  0  0  0  0  0  0  0  0  0
    6.6990   -0.1130    8.8420 C   0  0  0  0  0  3  0  0  0  0  0  0
    5.8020   -1.0350    8.3700 N   0  0  0  0  0  0  0  0  0  0  0  0
    4.4710   -1.2320    8.9310 C   0  0  0  0  0  3  0  0  0  0  0  0
    3.3570   -1.0770    7.8850 C   0  0  0  0  0  2  0  0  0  0  0  0
    1.9750   -1.2450    8.5140 C   0  0  0  0  0  2  0  0  0  0  0  0
    1.8590   -2.5610    9.2780 C   0  0  0  0  0  2  0  0  0  0  0  0
    2.9560   -2.7000   10.3300 C   0  0  0  0  0  2  0  0  0  0  0  0
    4.3470   -2.5460    9.7170 C   0  0  0  0  0  2  0  0  0  0  0  0
    8.5870   -3.6720    3.2700 O   0  0  0  0  0  0  0  0  0  0  0  0
    9.1060   -3.0770    4.2670 C   0  0  0  0  0  0  0  0  0  0  0  0
   10.3470   -2.8610    4.4370 O   0  0  0  0  0  1  0  0  0  0  0  0
  1  2  2  0  0  0  0
  1  6  1  0  0  0  0
  2  3  1  0  0  0  0
  3  4  2  0  0  0  0
  4  9  1  0  0  0  0
  5  4  1  0  0  0  0
  5  7  1  0  0  0  0
  6  5  2  0  0  0  0
  7  8  2  0  0  0  0
  9  8  1  0  0  0  0
  9 10  1  0  0  0  0
 10 15  1  0  0  0  0
 11 12  1  0  0  0  0
 11 10  1  0  0  0  0
 12 13  1  0  0  0  0
 13 14  1  0  0  0  0
 15 14  1  0  0  0  0
 16 17  2  0  0  0  0
 17 18  1  0  0  0  0
 17  1  1  0  0  0  0
M  END
>  <minimizedAffinity>
-4.66384315

$$$$
