
 OpenBabel09122222393D

 18 20  0  0  0  0  0  0  0  0999 V2000
    9.2300   -3.2680    0.9340 C   0  0  0  0  0  0  0  0  0  0  0  0
    8.2010   -4.0430    1.4930 C   0  0  0  0  0  3  0  0  0  0  0  0
    7.7950   -3.8990    2.8260 C   0  0  0  0  0  3  0  0  0  0  0  0
    8.4590   -2.9420    3.6010 C   0  0  0  0  0  0  0  0  0  0  0  0
    9.4870   -2.1510    3.0840 C   0  0  0  0  0  0  0  0  0  0  0  0
    9.8770   -2.3120    1.7440 C   0  0  0  0  0  3  0  0  0  0  0  0
    9.9760   -1.2910    4.0410 N   0  0  0  0  0  0  0  0  0  0  0  0
    9.2720   -1.5420    5.1170 C   0  0  0  0  0  3  0  0  0  0  0  0
    8.3450   -2.5290    4.9080 N   0  0  0  0  0  0  0  0  0  0  0  0
    7.4280   -3.0100    5.9330 C   0  0  0  0  0  3  0  0  0  0  0  0
    7.2300   -2.0010    7.0750 C   0  0  0  0  0  2  0  0  0  0  0  0
    6.2990   -2.5550    8.1520 C   0  0  0  0  0  2  0  0  0  0  0  0
    4.9690   -3.0170    7.5650 C   0  0  0  0  0  2  0  0  0  0  0  0
    5.1700   -4.0340    6.4450 C   0  0  0  0  0  2  0  0  0  0  0  0
    6.0900   -3.4940    5.3510 C   0  0  0  0  0  2  0  0  0  0  0  0
    9.2390   -4.5180   -1.0920 O   0  0  0  0  0  0  0  0  0  0  0  0
    9.6370   -3.4560   -0.5140 C   0  0  0  0  0  0  0  0  0  0  0  0
   10.3450   -2.5440   -1.0450 O   0  0  0  0  0  1  0  0  0  0  0  0
  1  2  2  0  0  0  0
  1  6  1  0  0  0  0
  2  3  1  0  0  0  0
  3  4  2  0  0  0  0
  4  9  1  0  0  0  0
  5  4  1  0  0  0  0
  5  7  1  0  0  0  0
  6  5  2  0  0  0  0
  7  8  2  0  0  0  0
  9  8  1  0  0  0  0
  9 10  1  0  0  0  0
 10 11  1  0  0  0  0
 11 12  1  0  0  0  0
 13 12  1  0  0  0  0
 14 13  1  0  0  0  0
 15 10  1  0  0  0  0
 15 14  1  0  0  0  0
 16 17  2  0  0  0  0
 17  1  1  0  0  0  0
 18 17  1  0  0  0  0
M  END
>  <minimizedAffinity>
-4.91321325

$$$$
