
 OpenBabel09122222393D

 18 20  0  0  0  0  0  0  0  0999 V2000
    2.9700   -2.7980    6.3520 C   0  0  0  0  0  0  0  0  0  0  0  0
    3.1390   -1.4180    6.5510 C   0  0  0  0  0  3  0  0  0  0  0  0
    3.7160   -0.8950    7.7150 C   0  0  0  0  0  3  0  0  0  0  0  0
    4.1270   -1.8050    8.6950 C   0  0  0  0  0  0  0  0  0  0  0  0
    3.9770   -3.1840    8.5360 C   0  0  0  0  0  0  0  0  0  0  0  0
    3.3970   -3.6870    7.3600 C   0  0  0  0  0  3  0  0  0  0  0  0
    4.4570   -3.8620    9.6340 N   0  0  0  0  0  0  0  0  0  0  0  0
    4.8900   -2.9300   10.4480 C   0  0  0  0  0  3  0  0  0  0  0  0
    4.7140   -1.6730    9.9310 N   0  0  0  0  0  0  0  0  0  0  0  0
    5.1030   -0.4500   10.6230 C   0  0  0  0  0  3  0  0  0  0  0  0
    6.3570    0.2010   10.0180 C   0  0  0  0  0  2  0  0  0  0  0  0
    6.7620    1.4540   10.7930 C   0  0  0  0  0  2  0  0  0  0  0  0
    5.6070    2.4430   10.9100 C   0  0  0  0  0  2  0  0  0  0  0  0
    4.3710    1.7970   11.5290 C   0  0  0  0  0  2  0  0  0  0  0  0
    3.9430    0.5480   10.7610 C   0  0  0  0  0  2  0  0  0  0  0  0
    2.1010   -2.4710    4.1600 O   0  0  0  0  0  0  0  0  0  0  0  0
    2.3410   -3.3220    5.0760 C   0  0  0  0  0  0  0  0  0  0  0  0
    2.0990   -4.5680    5.0120 O   0  0  0  0  0  1  0  0  0  0  0  0
  1  2  2  0  0  0  0
  1  6  1  0  0  0  0
  2  3  1  0  0  0  0
  3  4  2  0  0  0  0
  4  9  1  0  0  0  0
  5  4  1  0  0  0  0
  5  7  1  0  0  0  0
  6  5  2  0  0  0  0
  7  8  2  0  0  0  0
  9  8  1  0  0  0  0
  9 10  1  0  0  0  0
 10 15  1  0  0  0  0
 11 10  1  0  0  0  0
 11 12  1  0  0  0  0
 12 13  1  0  0  0  0
 13 14  1  0  0  0  0
 15 14  1  0  0  0  0
 16 17  2  0  0  0  0
 17  1  1  0  0  0  0
 18 17  1  0  0  0  0
M  END
>  <minimizedAffinity>
-4.70666504

$$$$
