
 OpenBabel09122222393D

 18 20  0  0  0  0  0  0  0  0999 V2000
    4.8000   -3.6520    4.3500 C   0  0  0  0  0  0  0  0  0  0  0  0
    5.6230   -3.6940    5.4870 C   0  0  0  0  0  3  0  0  0  0  0  0
    5.2600   -3.0860    6.6970 C   0  0  0  0  0  3  0  0  0  0  0  0
    4.0290   -2.4220    6.7390 C   0  0  0  0  0  0  0  0  0  0  0  0
    3.1820   -2.3580    5.6310 C   0  0  0  0  0  0  0  0  0  0  0  0
    3.5660   -2.9750    4.4290 C   0  0  0  0  0  3  0  0  0  0  0  0
    2.0370   -1.6520    5.9260 N   0  0  0  0  0  0  0  0  0  0  0  0
    2.1730   -1.2910    7.1790 C   0  0  0  0  0  3  0  0  0  0  0  0
    3.3550   -1.7280    7.7160 N   0  0  0  0  0  0  0  0  0  0  0  0
    3.7660   -1.4680    9.0900 C   0  0  0  0  0  3  0  0  0  0  0  0
    4.6880   -0.2450    9.2130 C   0  0  0  0  0  2  0  0  0  0  0  0
    5.1350   -0.0290   10.6580 C   0  0  0  0  0  2  0  0  0  0  0  0
    3.9460    0.0580   11.6090 C   0  0  0  0  0  2  0  0  0  0  0  0
    3.0440   -1.1690   11.4970 C   0  0  0  0  0  2  0  0  0  0  0  0
    2.5770   -1.3960   10.0610 C   0  0  0  0  0  2  0  0  0  0  0  0
    4.3210   -4.5830    2.2120 O   0  0  0  0  0  0  0  0  0  0  0  0
    5.2320   -4.3240    3.0610 C   0  0  0  0  0  0  0  0  0  0  0  0
    6.4690   -4.5780    2.9220 O   0  0  0  0  0  1  0  0  0  0  0  0
  1  6  2  0  0  0  0
  1  2  1  0  0  0  0
  2  3  2  0  0  0  0
  3  4  1  0  0  0  0
  4  9  1  0  0  0  0
  5  7  1  0  0  0  0
  5  4  2  0  0  0  0
  6  5  1  0  0  0  0
  7  8  2  0  0  0  0
  8  9  1  0  0  0  0
  9 10  1  0  0  0  0
 10 11  1  0  0  0  0
 10 15  1  0  0  0  0
 11 12  1  0  0  0  0
 12 13  1  0  0  0  0
 14 13  1  0  0  0  0
 15 14  1  0  0  0  0
 16 17  2  0  0  0  0
 17  1  1  0  0  0  0
 18 17  1  0  0  0  0
M  END
>  <minimizedAffinity>
-5.18054342

$$$$
