
 OpenBabel09122222393D

 18 20  0  0  0  0  0  0  0  0999 V2000
    6.1210    0.5880   10.0790 C   0  0  0  0  0  0  0  0  0  0  0  0
    6.6370    0.0370    8.8950 C   0  0  0  0  0  3  0  0  0  0  0  0
    5.8460   -0.7060    8.0080 C   0  0  0  0  0  3  0  0  0  0  0  0
    4.5000   -0.8860    8.3430 C   0  0  0  0  0  0  0  0  0  0  0  0
    3.9480   -0.3540    9.5110 C   0  0  0  0  0  0  0  0  0  0  0  0
    4.7590    0.3870   10.3850 C   0  0  0  0  0  3  0  0  0  0  0  0
    2.6110   -0.6690    9.6120 N   0  0  0  0  0  0  0  0  0  0  0  0
    2.3450   -1.3750    8.5390 C   0  0  0  0  0  3  0  0  0  0  0  0
    3.4480   -1.5360    7.7420 N   0  0  0  0  0  0  0  0  0  0  0  0
    3.4400   -2.2790    6.4880 C   0  0  0  0  0  3  0  0  0  0  0  0
    3.6500   -3.7870    6.6890 C   0  0  0  0  0  2  0  0  0  0  0  0
    3.6810   -4.5280    5.3540 C   0  0  0  0  0  2  0  0  0  0  0  0
    2.4390   -4.2340    4.5170 C   0  0  0  0  0  2  0  0  0  0  0  0
    2.2460   -2.7360    4.3030 C   0  0  0  0  0  2  0  0  0  0  0  0
    2.2010   -1.9780    5.6290 C   0  0  0  0  0  2  0  0  0  0  0  0
    6.6380    2.5670   11.2960 O   0  0  0  0  0  0  0  0  0  0  0  0
    7.0120    1.3850   11.0100 C   0  0  0  0  0  0  0  0  0  0  0  0
    8.0660    0.8180   11.4380 O   0  0  0  0  0  1  0  0  0  0  0  0
  1  6  1  0  0  0  0
  1 17  1  0  0  0  0
  2  1  2  0  0  0  0
  3  4  2  0  0  0  0
  3  2  1  0  0  0  0
  4  5  1  0  0  0  0
  5  7  1  0  0  0  0
  5  6  2  0  0  0  0
  8  7  2  0  0  0  0
  9  4  1  0  0  0  0
  9  8  1  0  0  0  0
 10 11  1  0  0  0  0
 10  9  1  0  0  0  0
 12 11  1  0  0  0  0
 13 12  1  0  0  0  0
 14 13  1  0  0  0  0
 14 15  1  0  0  0  0
 15 10  1  0  0  0  0
 17 16  2  0  0  0  0
 17 18  1  0  0  0  0
M  END
>  <minimizedAffinity>
-4.69438648

$$$$
