
 OpenBabel09132204463D

 33 37  0  0  1  0  0  0  0  0999 V2000
    9.2700   -0.7500    4.6040 O   0  0  0  0  0  0  0  0  0  0  0  0
    9.1020   -1.2790    3.5000 C   0  0  0  0  0  0  0  0  0  0  0  0
    9.4290   -0.4650    2.2890 C   0  0  0  0  0  0  0  0  0  0  0  0
    9.3530   -1.0510    1.0820 C   0  0  0  0  0  0  0  0  0  0  0  0
    9.0380   -2.4830    0.9340 C   0  0  0  0  0  0  0  0  0  0  0  0
    9.1630   -3.1390   -0.3060 C   0  0  0  0  0  3  0  0  0  0  0  0
    8.8290   -4.4830   -0.4460 C   0  0  0  0  0  3  0  0  0  0  0  0
    8.3810   -5.1960    0.6550 C   0  0  0  0  0  3  0  0  0  0  0  0
    8.2860   -4.5690    1.9000 C   0  0  0  0  0  3  0  0  0  0  0  0
    8.6220   -3.2150    2.0640 C   0  0  0  0  0  0  0  0  0  0  0  0
    8.5980   -2.5650    3.3390 N   0  0  0  0  0  0  0  0  0  0  0  0
    9.8120    0.9820    2.5080 C   0  0  1  0  0  3  0  0  0  0  0  0
   10.2830    1.3750    3.6650 N   0  0  0  0  0  0  0  0  0  0  0  0
   10.7320    2.8610    4.0590 S   0  0  0  0  0  0  0  0  0  0  0  0
    9.8050    3.4010    5.0360 O   0  0  0  0  0  0  0  0  0  0  0  0
   12.1540    2.8670    4.3490 O   0  0  0  0  0  0  0  0  0  0  0  0
   10.5360    3.8540    2.6180 C   0  0  0  0  0  0  0  0  0  0  0  0
   10.9040    5.2050    2.6560 C   0  0  0  0  0  3  0  0  0  0  0  0
   10.7500    5.9830    1.5120 C   0  0  0  0  0  3  0  0  0  0  0  0
   10.2340    5.4080    0.3500 C   0  0  0  0  0  3  0  0  0  0  0  0
    9.8730    4.0560    0.3310 C   0  0  0  0  0  3  0  0  0  0  0  0
   10.0240    3.2620    1.4710 C   0  0  0  0  0  0  0  0  0  0  0  0
    9.6790    1.9170    1.4560 N   0  0  0  0  0  0  0  0  0  0  0  0
   10.3810    0.6740    4.3930 H   0  0  0  0  0  0  0  0  0  0  0  0
    9.3120    1.5250    0.5880 H   0  0  0  0  0  0  0  0  0  0  0  0
    9.5370   -0.3120   -0.0800 O   0  0  0  0  0  0  0  0  0  0  0  0
    8.9640   -0.6920   -0.7730 H   0  0  0  0  0  0  0  0  0  0  0  0
    8.1010   -3.2440    4.5430 C   0  0  0  0  0  2  0  0  0  0  0  0
    6.7130   -2.8070    5.0700 C   0  0  2  0  0  3  0  0  0  0  0  0
    6.6510   -2.4400    6.5400 C   0  0  0  0  0  2  0  0  0  0  0  0
    6.2840   -3.7390    7.2360 C   0  0  0  0  0  2  0  0  0  0  0  0
    5.7860   -4.6370    6.2340 O   0  0  0  0  0  0  0  0  0  0  0  0
    5.6550   -3.8970    5.0130 C   0  0  0  0  0  2  0  0  0  0  0  0
  2  1  2  0  0  0  0
  3  2  1  0  0  0  0
  4  3  2  0  0  0  0
  5  4  1  0  0  0  0
  5 10  1  0  0  0  0
  6  5  2  0  0  0  0
  7  6  1  0  0  0  0
  7  8  2  0  0  0  0
  8  9  1  0  0  0  0
  9 10  2  0  0  0  0
 10 11  1  0  0  0  0
 11  2  1  0  0  0  0
 11 28  1  0  0  0  0
 12  3  1  6  0  0  0
 12 13  1  0  0  0  0
 13 14  1  0  0  0  0
 13 24  1  0  0  0  0
 14 16  2  0  0  0  0
 14 15  2  0  0  0  0
 17 18  1  0  0  0  0
 17 14  1  0  0  0  0
 19 18  2  0  0  0  0
 20 19  1  0  0  0  0
 21 20  2  0  0  0  0
 21 22  1  0  0  0  0
 22 17  2  0  0  0  0
 23 22  1  0  0  0  0
 23 12  1  0  0  0  0
 25 23  1  0  0  0  0
 26  4  1  0  0  0  0
 27 26  1  0  0  0  0
 29 28  1  1  0  0  0
 29 30  1  0  0  0  0
 30 31  1  0  0  0  0
 32 31  1  0  0  0  0
 33 29  1  0  0  0  0
 33 32  1  0  0  0  0
M  END
>  <minimizedAffinity>
-6.40204382

$$$$
