
 OpenBabel09132204463D

 33 37  0  0  1  0  0  0  0  0999 V2000
   10.9460   -2.2530    4.4440 O   0  0  0  0  0  0  0  0  0  0  0  0
    9.7640   -2.4690    4.7340 C   0  0  0  0  0  0  0  0  0  0  0  0
    8.8140   -2.7270    3.6080 C   0  0  0  0  0  0  0  0  0  0  0  0
    7.5480   -3.0640    3.9010 C   0  0  0  0  0  0  0  0  0  0  0  0
    7.1000   -3.2630    5.2910 C   0  0  0  0  0  0  0  0  0  0  0  0
    5.8390   -3.8160    5.5860 C   0  0  0  0  0  3  0  0  0  0  0  0
    5.4090   -3.9670    6.9010 C   0  0  0  0  0  3  0  0  0  0  0  0
    6.2400   -3.5840    7.9420 C   0  0  0  0  0  3  0  0  0  0  0  0
    7.5090   -3.0680    7.6670 C   0  0  0  0  0  3  0  0  0  0  0  0
    7.9640   -2.9110    6.3470 C   0  0  0  0  0  0  0  0  0  0  0  0
    9.2820   -2.4470    6.0380 N   0  0  0  0  0  0  0  0  0  0  0  0
    9.3480   -2.5730    2.2010 C   0  0  1  0  0  3  0  0  0  0  0  0
    9.6020   -3.6290    1.4690 N   0  0  0  0  0  0  0  0  0  0  0  0
   10.1680   -3.6390   -0.0300 S   0  0  0  0  0  0  0  0  0  0  0  0
   11.5170   -4.1710   -0.0320 O   0  0  0  0  0  0  0  0  0  0  0  0
    9.1720   -4.2240   -0.9090 O   0  0  0  0  0  0  0  0  0  0  0  0
   10.3180   -1.9580   -0.5330 C   0  0  0  0  0  0  0  0  0  0  0  0
   10.7480   -1.6630   -1.8320 C   0  0  0  0  0  3  0  0  0  0  0  0
   10.8610   -0.3310   -2.2230 C   0  0  0  0  0  3  0  0  0  0  0  0
   10.5450    0.6830   -1.3200 C   0  0  0  0  0  3  0  0  0  0  0  0
   10.1160    0.3680   -0.0250 C   0  0  0  0  0  3  0  0  0  0  0  0
    9.9960   -0.9630    0.3810 C   0  0  0  0  0  0  0  0  0  0  0  0
    9.5590   -1.2840    1.6600 N   0  0  0  0  0  0  0  0  0  0  0  0
    9.4230   -4.5390    1.8820 H   0  0  0  0  0  0  0  0  0  0  0  0
    9.3280   -0.5180    2.2940 H   0  0  0  0  0  0  0  0  0  0  0  0
    6.5980   -3.2050    2.8970 O   0  0  0  0  0  0  0  0  0  0  0  0
    5.7350   -2.9210    3.2540 H   0  0  0  0  0  0  0  0  0  0  0  0
   10.2060   -1.9890    7.0840 C   0  0  0  0  0  2  0  0  0  0  0  0
   10.0360   -0.5310    7.5770 C   0  0  2  0  0  3  0  0  0  0  0  0
    9.9830    0.5300    6.4950 C   0  0  0  0  0  2  0  0  0  0  0  0
   11.4280    0.9660    6.3260 C   0  0  0  0  0  2  0  0  0  0  0  0
   12.1530    0.5040    7.4750 O   0  0  0  0  0  0  0  0  0  0  0  0
   11.1990   -0.0170    8.4100 C   0  0  0  0  0  2  0  0  0  0  0  0
  1  2  2  0  0  0  0
  2 11  1  0  0  0  0
  3  4  2  0  0  0  0
  3  2  1  0  0  0  0
  4  5  1  0  0  0  0
  5  6  2  0  0  0  0
  5 10  1  0  0  0  0
  6  7  1  0  0  0  0
  7  8  2  0  0  0  0
  9  8  1  0  0  0  0
 10  9  2  0  0  0  0
 11 10  1  0  0  0  0
 11 28  1  0  0  0  0
 12  3  1  6  0  0  0
 13 24  1  0  0  0  0
 13 12  1  0  0  0  0
 14 13  1  0  0  0  0
 15 14  2  0  0  0  0
 16 14  2  0  0  0  0
 17 14  1  0  0  0  0
 17 22  1  0  0  0  0
 18 17  2  0  0  0  0
 19 18  1  0  0  0  0
 19 20  2  0  0  0  0
 20 21  1  0  0  0  0
 21 22  2  0  0  0  0
 22 23  1  0  0  0  0
 23 12  1  0  0  0  0
 23 25  1  0  0  0  0
 26 27  1  0  0  0  0
 26  4  1  0  0  0  0
 29 28  1  6  0  0  0
 29 33  1  0  0  0  0
 30 29  1  0  0  0  0
 31 30  1  0  0  0  0
 31 32  1  0  0  0  0
 32 33  1  0  0  0  0
M  END
>  <minimizedAffinity>
-7.94072104

$$$$
