
 OpenBabel09132204463D

 33 37  0  0  1  0  0  0  0  0999 V2000
    9.0100    0.7340    2.7890 O   0  0  0  0  0  0  0  0  0  0  0  0
    9.4070    0.1540    1.7730 C   0  0  0  0  0  0  0  0  0  0  0  0
   10.1470    0.9680    0.7600 C   0  0  0  0  0  0  0  0  0  0  0  0
   10.6770    0.3420   -0.3040 C   0  0  0  0  0  0  0  0  0  0  0  0
   10.6170   -1.1230   -0.4500 C   0  0  0  0  0  0  0  0  0  0  0  0
   11.3500   -1.7930   -1.4500 C   0  0  0  0  0  3  0  0  0  0  0  0
   11.2610   -3.1740   -1.6040 C   0  0  0  0  0  3  0  0  0  0  0  0
   10.4510   -3.9070   -0.7520 C   0  0  0  0  0  3  0  0  0  0  0  0
    9.7470   -3.2630    0.2680 C   0  0  0  0  0  3  0  0  0  0  0  0
    9.8270   -1.8710    0.4440 C   0  0  0  0  0  0  0  0  0  0  0  0
    9.1690   -1.1930    1.5200 N   0  0  0  0  0  0  0  0  0  0  0  0
   10.2330    2.4590    0.9970 C   0  0  1  0  0  3  0  0  0  0  0  0
   10.0330    3.3010    0.0130 N   0  0  0  0  0  0  0  0  0  0  0  0
   10.0870    4.8990    0.0960 S   0  0  0  0  0  0  0  0  0  0  0  0
   11.2370    5.3810   -0.6470 O   0  0  0  0  0  0  0  0  0  0  0  0
    8.7720    5.4350   -0.2030 O   0  0  0  0  0  0  0  0  0  0  0  0
   10.4000    5.3150    1.7790 C   0  0  0  0  0  0  0  0  0  0  0  0
   10.4510    6.6610    2.1580 C   0  0  0  0  0  3  0  0  0  0  0  0
   10.6960    6.9820    3.4910 C   0  0  0  0  0  3  0  0  0  0  0  0
   10.8840    5.9620    4.4230 C   0  0  0  0  0  3  0  0  0  0  0  0
   10.8280    4.6220    4.0250 C   0  0  0  0  0  3  0  0  0  0  0  0
   10.5820    4.2840    2.6910 C   0  0  0  0  0  0  0  0  0  0  0  0
   10.5130    2.9560    2.2910 N   0  0  0  0  0  0  0  0  0  0  0  0
    9.8170    2.9100   -0.8990 H   0  0  0  0  0  0  0  0  0  0  0  0
   10.6480    2.2340    3.0000 H   0  0  0  0  0  0  0  0  0  0  0  0
   11.2760    1.0640   -1.3290 O   0  0  0  0  0  0  0  0  0  0  0  0
   11.1140    0.5900   -2.1670 H   0  0  0  0  0  0  0  0  0  0  0  0
    8.2680   -1.8970    2.4420 C   0  0  0  0  0  2  0  0  0  0  0  0
    8.9270   -2.8200    3.4950 C   0  0  2  0  0  3  0  0  0  0  0  0
    8.2790   -2.8250    4.8660 C   0  0  0  0  0  2  0  0  0  0  0  0
    9.0240   -1.7480    5.6370 C   0  0  0  0  0  2  0  0  0  0  0  0
   10.2300   -1.4610    4.9150 O   0  0  0  0  0  0  0  0  0  0  0  0
   10.3490   -2.4280    3.8630 C   0  0  0  0  0  2  0  0  0  0  0  0
  2  1  2  0  0  0  0
  3  2  1  0  0  0  0
  4  3  2  0  0  0  0
  5  4  1  0  0  0  0
  5 10  1  0  0  0  0
  6  5  2  0  0  0  0
  7  6  1  0  0  0  0
  7  8  2  0  0  0  0
  8  9  1  0  0  0  0
  9 10  2  0  0  0  0
 10 11  1  0  0  0  0
 11  2  1  0  0  0  0
 11 28  1  0  0  0  0
 12  3  1  1  0  0  0
 12 23  1  0  0  0  0
 13 14  1  0  0  0  0
 13 12  1  0  0  0  0
 14 17  1  0  0  0  0
 15 14  2  0  0  0  0
 16 14  2  0  0  0  0
 17 18  2  0  0  0  0
 17 22  1  0  0  0  0
 18 19  1  0  0  0  0
 19 20  2  0  0  0  0
 21 20  1  0  0  0  0
 22 21  2  0  0  0  0
 23 22  1  0  0  0  0
 23 25  1  0  0  0  0
 24 13  1  0  0  0  0
 26  4  1  0  0  0  0
 27 26  1  0  0  0  0
 29 28  1  6  0  0  0
 29 33  1  0  0  0  0
 29 30  1  0  0  0  0
 30 31  1  0  0  0  0
 32 31  1  0  0  0  0
 33 32  1  0  0  0  0
M  END
>  <minimizedAffinity>
-7.20452547

$$$$
