
 OpenBabel09132200013D

 33 37  0  0  1  0  0  0  0  0999 V2000
    6.7830   -3.3600    2.6140 O   0  0  0  0  0  0  0  0  0  0  0  0
    7.4330   -3.1680    3.6480 C   0  0  0  0  0  0  0  0  0  0  0  0
    8.8280   -2.6510    3.5000 C   0  0  0  0  0  0  0  0  0  0  0  0
    9.5180   -2.3390    4.6090 C   0  0  0  0  0  0  0  0  0  0  0  0
    8.9080   -2.4160    5.9480 C   0  0  0  0  0  0  0  0  0  0  0  0
    9.5580   -1.8920    7.0830 C   0  0  0  0  0  3  0  0  0  0  0  0
    8.9930   -2.0000    8.3500 C   0  0  0  0  0  3  0  0  0  0  0  0
    7.7620   -2.6190    8.5010 C   0  0  0  0  0  3  0  0  0  0  0  0
    7.0870   -3.1100    7.3800 C   0  0  0  0  0  3  0  0  0  0  0  0
    7.6380   -3.0070    6.0920 C   0  0  0  0  0  0  0  0  0  0  0  0
    6.9410   -3.4420    4.9200 N   0  0  0  0  0  0  0  0  0  0  0  0
    9.3770   -2.5300    2.0950 C   0  0  1  0  0  3  0  0  0  0  0  0
    9.6410   -3.6030    1.3920 N   0  0  0  0  0  0  0  0  0  0  0  0
   10.2240   -3.6490   -0.1000 S   0  0  0  0  0  0  0  0  0  0  0  0
   11.5740   -4.1770   -0.0740 O   0  0  0  0  0  0  0  0  0  0  0  0
    9.2390   -4.2570   -0.9750 O   0  0  0  0  0  0  0  0  0  0  0  0
   10.3760   -1.9800   -0.6410 C   0  0  0  0  0  0  0  0  0  0  0  0
   10.8200   -1.7150   -1.9420 C   0  0  0  0  0  3  0  0  0  0  0  0
   10.9350   -0.3930   -2.3650 C   0  0  0  0  0  3  0  0  0  0  0  0
   10.6060    0.6420   -1.4900 C   0  0  0  0  0  3  0  0  0  0  0  0
   10.1640    0.3580   -0.1930 C   0  0  0  0  0  3  0  0  0  0  0  0
   10.0420   -0.9640    0.2450 C   0  0  0  0  0  0  0  0  0  0  0  0
    9.5910   -1.2540    1.5250 N   0  0  0  0  0  0  0  0  0  0  0  0
    9.4600   -4.5030    1.8250 H   0  0  0  0  0  0  0  0  0  0  0  0
    9.3520   -0.4730    2.1390 H   0  0  0  0  0  0  0  0  0  0  0  0
   10.8530   -1.9610    4.5330 O   0  0  0  0  0  0  0  0  0  0  0  0
   11.3040   -2.2820    5.3370 H   0  0  0  0  0  0  0  0  0  0  0  0
    5.6490   -4.1370    5.0020 C   0  0  0  0  0  2  0  0  0  0  0  0
    4.3900   -3.2530    5.1740 C   0  0  2  0  0  3  0  0  0  0  0  0
    3.4000   -3.7130    6.2270 C   0  0  0  0  0  2  0  0  0  0  0  0
    2.4290   -4.6010    5.4670 C   0  0  0  0  0  2  0  0  0  0  0  0
    2.6080   -4.3340    4.0690 O   0  0  0  0  0  0  0  0  0  0  0  0
    3.4900   -3.2090    3.9500 C   0  0  0  0  0  2  0  0  0  0  0  0
  1  2  2  0  0  0  0
  2 11  1  0  0  0  0
  3  2  1  0  0  0  0
  3  4  2  0  0  0  0
  4  5  1  0  0  0  0
  5 10  2  0  0  0  0
  5  6  1  0  0  0  0
  6  7  2  0  0  0  0
  7  8  1  0  0  0  0
  9  8  2  0  0  0  0
 10  9  1  0  0  0  0
 11 28  1  0  0  0  0
 11 10  1  0  0  0  0
 12  3  1  6  0  0  0
 13 24  1  0  0  0  0
 13 12  1  0  0  0  0
 14 15  2  0  0  0  0
 14 13  1  0  0  0  0
 16 14  2  0  0  0  0
 17 14  1  0  0  0  0
 17 22  1  0  0  0  0
 18 17  2  0  0  0  0
 19 18  1  0  0  0  0
 19 20  2  0  0  0  0
 20 21  1  0  0  0  0
 21 22  2  0  0  0  0
 22 23  1  0  0  0  0
 23 12  1  0  0  0  0
 23 25  1  0  0  0  0
 26  4  1  0  0  0  0
 26 27  1  0  0  0  0
 29 28  1  6  0  0  0
 29 30  1  0  0  0  0
 31 30  1  0  0  0  0
 32 31  1  0  0  0  0
 33 32  1  0  0  0  0
 33 29  1  0  0  0  0
M  END
>  <minimizedAffinity>
-8.25977802

$$$$

 OpenBabel09132200013D

 33 37  0  0  1  0  0  0  0  0999 V2000
   10.9460   -2.2530    4.4440 O   0  0  0  0  0  0  0  0  0  0  0  0
    9.7640   -2.4690    4.7340 C   0  0  0  0  0  0  0  0  0  0  0  0
    8.8140   -2.7270    3.6080 C   0  0  0  0  0  0  0  0  0  0  0  0
    7.5480   -3.0640    3.9010 C   0  0  0  0  0  0  0  0  0  0  0  0
    7.1000   -3.2630    5.2910 C   0  0  0  0  0  0  0  0  0  0  0  0
    5.8390   -3.8160    5.5860 C   0  0  0  0  0  3  0  0  0  0  0  0
    5.4090   -3.9670    6.9010 C   0  0  0  0  0  3  0  0  0  0  0  0
    6.2400   -3.5840    7.9420 C   0  0  0  0  0  3  0  0  0  0  0  0
    7.5090   -3.0680    7.6670 C   0  0  0  0  0  3  0  0  0  0  0  0
    7.9640   -2.9110    6.3470 C   0  0  0  0  0  0  0  0  0  0  0  0
    9.2820   -2.4470    6.0380 N   0  0  0  0  0  0  0  0  0  0  0  0
    9.3480   -2.5730    2.2010 C   0  0  1  0  0  3  0  0  0  0  0  0
    9.6020   -3.6290    1.4690 N   0  0  0  0  0  0  0  0  0  0  0  0
   10.1680   -3.6390   -0.0300 S   0  0  0  0  0  0  0  0  0  0  0  0
   11.5170   -4.1710   -0.0320 O   0  0  0  0  0  0  0  0  0  0  0  0
    9.1720   -4.2240   -0.9090 O   0  0  0  0  0  0  0  0  0  0  0  0
   10.3180   -1.9580   -0.5330 C   0  0  0  0  0  0  0  0  0  0  0  0
   10.7480   -1.6630   -1.8320 C   0  0  0  0  0  3  0  0  0  0  0  0
   10.8610   -0.3310   -2.2230 C   0  0  0  0  0  3  0  0  0  0  0  0
   10.5450    0.6830   -1.3200 C   0  0  0  0  0  3  0  0  0  0  0  0
   10.1160    0.3680   -0.0250 C   0  0  0  0  0  3  0  0  0  0  0  0
    9.9960   -0.9630    0.3810 C   0  0  0  0  0  0  0  0  0  0  0  0
    9.5590   -1.2840    1.6600 N   0  0  0  0  0  0  0  0  0  0  0  0
    9.4230   -4.5390    1.8820 H   0  0  0  0  0  0  0  0  0  0  0  0
    9.3280   -0.5180    2.2940 H   0  0  0  0  0  0  0  0  0  0  0  0
    6.5980   -3.2050    2.8970 O   0  0  0  0  0  0  0  0  0  0  0  0
    5.7350   -2.9210    3.2540 H   0  0  0  0  0  0  0  0  0  0  0  0
   10.2060   -1.9890    7.0840 C   0  0  0  0  0  2  0  0  0  0  0  0
   10.0360   -0.5310    7.5770 C   0  0  2  0  0  3  0  0  0  0  0  0
    9.9830    0.5300    6.4950 C   0  0  0  0  0  2  0  0  0  0  0  0
   11.4280    0.9660    6.3260 C   0  0  0  0  0  2  0  0  0  0  0  0
   12.1530    0.5040    7.4750 O   0  0  0  0  0  0  0  0  0  0  0  0
   11.1990   -0.0170    8.4100 C   0  0  0  0  0  2  0  0  0  0  0  0
  1  2  2  0  0  0  0
  2 11  1  0  0  0  0
  3  4  2  0  0  0  0
  3  2  1  0  0  0  0
  4  5  1  0  0  0  0
  5  6  2  0  0  0  0
  5 10  1  0  0  0  0
  6  7  1  0  0  0  0
  7  8  2  0  0  0  0
  9  8  1  0  0  0  0
 10  9  2  0  0  0  0
 11 10  1  0  0  0  0
 11 28  1  0  0  0  0
 12  3  1  6  0  0  0
 13 24  1  0  0  0  0
 13 12  1  0  0  0  0
 14 13  1  0  0  0  0
 15 14  2  0  0  0  0
 16 14  2  0  0  0  0
 17 14  1  0  0  0  0
 17 22  1  0  0  0  0
 18 17  2  0  0  0  0
 19 18  1  0  0  0  0
 19 20  2  0  0  0  0
 20 21  1  0  0  0  0
 21 22  2  0  0  0  0
 22 23  1  0  0  0  0
 23 12  1  0  0  0  0
 23 25  1  0  0  0  0
 26 27  1  0  0  0  0
 26  4  1  0  0  0  0
 29 28  1  6  0  0  0
 29 33  1  0  0  0  0
 30 29  1  0  0  0  0
 31 30  1  0  0  0  0
 31 32  1  0  0  0  0
 32 33  1  0  0  0  0
M  END
>  <minimizedAffinity>
-7.94072104

$$$$

 OpenBabel09132200013D

 33 37  0  0  1  0  0  0  0  0999 V2000
    9.7880    1.5900    3.1800 O   0  0  0  0  0  0  0  0  0  0  0  0
   10.0830    1.6190    1.9800 C   0  0  0  0  0  0  0  0  0  0  0  0
   10.7900    2.8360    1.4740 C   0  0  0  0  0  0  0  0  0  0  0  0
   11.2120    2.8490    0.1990 C   0  0  0  0  0  0  0  0  0  0  0  0
   11.0680    1.6740   -0.6780 C   0  0  0  0  0  0  0  0  0  0  0  0
   11.6940    1.6150   -1.9380 C   0  0  0  0  0  3  0  0  0  0  0  0
   11.5240    0.5160   -2.7760 C   0  0  0  0  0  3  0  0  0  0  0  0
   10.7390   -0.5470   -2.3600 C   0  0  0  0  0  3  0  0  0  0  0  0
   10.1420   -0.5210   -1.0970 C   0  0  0  0  0  3  0  0  0  0  0  0
   10.3050    0.5760   -0.2340 C   0  0  0  0  0  0  0  0  0  0  0  0
    9.7590    0.6020    1.0890 N   0  0  0  0  0  0  0  0  0  0  0  0
   10.9690    3.9860    2.4400 C   0  0  1  0  0  3  0  0  0  0  0  0
   10.6980    5.2130    2.0680 N   0  0  0  0  0  0  0  0  0  0  0  0
   10.8320    6.5350    2.9630 S   0  0  0  0  0  0  0  0  0  0  0  0
   11.9120    7.3560    2.4480 O   0  0  0  0  0  0  0  0  0  0  0  0
    9.5180    7.1210    3.1450 O   0  0  0  0  0  0  0  0  0  0  0  0
   11.3490    6.0180    4.5650 C   0  0  0  0  0  0  0  0  0  0  0  0
   11.5030    6.9700    5.5800 C   0  0  0  0  0  3  0  0  0  0  0  0
   11.9090    6.5550    6.8450 C   0  0  0  0  0  3  0  0  0  0  0  0
   12.1540    5.2020    7.0820 C   0  0  0  0  0  3  0  0  0  0  0  0
   11.9950    4.2650    6.0550 C   0  0  0  0  0  3  0  0  0  0  0  0
   11.5860    4.6670    4.7800 C   0  0  0  0  0  0  0  0  0  0  0  0
   11.4140    3.7420    3.7600 N   0  0  0  0  0  0  0  0  0  0  0  0
   10.3640    5.3510    1.1190 H   0  0  0  0  0  0  0  0  0  0  0  0
   11.5940    2.7580    3.9680 H   0  0  0  0  0  0  0  0  0  0  0  0
   11.7740    3.9940   -0.3520 O   0  0  0  0  0  0  0  0  0  0  0  0
   11.5310    4.0260   -1.2970 H   0  0  0  0  0  0  0  0  0  0  0  0
    8.8900   -0.4720    1.5880 C   0  0  0  0  0  2  0  0  0  0  0  0
    9.5880   -1.7480    2.1170 C   0  0  2  0  0  3  0  0  0  0  0  0
    9.2160   -3.0420    1.4190 C   0  0  0  0  0  2  0  0  0  0  0  0
    8.0520   -3.5840    2.2300 C   0  0  0  0  0  2  0  0  0  0  0  0
    8.0420   -2.8890    3.4850 O   0  0  0  0  0  0  0  0  0  0  0  0
    9.2370   -2.0990    3.5540 C   0  0  0  0  0  2  0  0  0  0  0  0
  2  1  2  0  0  0  0
  3  2  1  0  0  0  0
  4  3  2  0  0  0  0
  5 10  1  0  0  0  0
  5  4  1  0  0  0  0
  6  5  2  0  0  0  0
  7  8  2  0  0  0  0
  7  6  1  0  0  0  0
  8  9  1  0  0  0  0
  9 10  2  0  0  0  0
 10 11  1  0  0  0  0
 11 28  1  0  0  0  0
 11  2  1  0  0  0  0
 12  3  1  1  0  0  0
 12 23  1  0  0  0  0
 13 12  1  0  0  0  0
 13 14  1  0  0  0  0
 14 16  2  0  0  0  0
 14 17  1  0  0  0  0
 15 14  2  0  0  0  0
 17 22  2  0  0  0  0
 17 18  1  0  0  0  0
 18 19  2  0  0  0  0
 19 20  1  0  0  0  0
 21 20  2  0  0  0  0
 22 21  1  0  0  0  0
 23 25  1  0  0  0  0
 23 22  1  0  0  0  0
 24 13  1  0  0  0  0
 26  4  1  0  0  0  0
 27 26  1  0  0  0  0
 29 28  1  6  0  0  0
 29 33  1  0  0  0  0
 30 29  1  0  0  0  0
 30 31  1  0  0  0  0
 31 32  1  0  0  0  0
 32 33  1  0  0  0  0
M  END
>  <minimizedAffinity>
-7.73116446

$$$$

 OpenBabel09132200013D

 33 37  0  0  1  0  0  0  0  0999 V2000
    8.6520    0.7530    2.1480 O   0  0  0  0  0  0  0  0  0  0  0  0
    9.3770    0.0700    1.4160 C   0  0  0  0  0  0  0  0  0  0  0  0
    9.5380   -1.3760    1.7610 C   0  0  0  0  0  0  0  0  0  0  0  0
   10.2380   -2.1610    0.9260 C   0  0  0  0  0  0  0  0  0  0  0  0
   10.7740   -1.6530   -0.3500 C   0  0  0  0  0  0  0  0  0  0  0  0
   11.3210   -2.5200   -1.3150 C   0  0  0  0  0  3  0  0  0  0  0  0
   11.8580   -2.0290   -2.5020 C   0  0  0  0  0  3  0  0  0  0  0  0
   11.8410   -0.6660   -2.7490 C   0  0  0  0  0  3  0  0  0  0  0  0
   11.2680    0.2050   -1.8180 C   0  0  0  0  0  3  0  0  0  0  0  0
   10.7170   -0.2710   -0.6160 C   0  0  0  0  0  0  0  0  0  0  0  0
   10.0660    0.5900    0.3250 N   0  0  0  0  0  0  0  0  0  0  0  0
    8.9090   -1.8560    3.0500 C   0  0  1  0  0  3  0  0  0  0  0  0
    9.4110   -1.4990    4.2060 N   0  0  0  0  0  0  0  0  0  0  0  0
    8.8680   -1.9170    5.6550 S   0  0  0  0  0  0  0  0  0  0  0  0
    9.8270   -2.7980    6.2930 O   0  0  0  0  0  0  0  0  0  0  0  0
    8.4190   -0.7280    6.3550 O   0  0  0  0  0  0  0  0  0  0  0  0
    7.4240   -2.8920    5.3980 C   0  0  0  0  0  0  0  0  0  0  0  0
    6.7030   -3.3610    6.5030 C   0  0  0  0  0  3  0  0  0  0  0  0
    5.5610   -4.1290    6.2920 C   0  0  0  0  0  3  0  0  0  0  0  0
    5.1530   -4.4170    4.9900 C   0  0  0  0  0  3  0  0  0  0  0  0
    5.8870   -3.9400    3.8980 C   0  0  0  0  0  3  0  0  0  0  0  0
    7.0340   -3.1670    4.0930 C   0  0  0  0  0  0  0  0  0  0  0  0
    7.7600   -2.6790    3.0150 N   0  0  0  0  0  0  0  0  0  0  0  0
   10.2250   -0.8930    4.1960 H   0  0  0  0  0  0  0  0  0  0  0  0
    7.4300   -2.9020    2.0740 H   0  0  0  0  0  0  0  0  0  0  0  0
   10.5110   -3.4830    1.2540 O   0  0  0  0  0  0  0  0  0  0  0  0
   11.3830   -3.7130    0.8800 H   0  0  0  0  0  0  0  0  0  0  0  0
   10.0390    2.0470    0.1500 C   0  0  0  0  0  2  0  0  0  0  0  0
   11.1920    2.8510    0.8000 C   0  0  2  0  0  3  0  0  0  0  0  0
   10.7920    3.7800    1.9310 C   0  0  0  0  0  2  0  0  0  0  0  0
   10.5200    5.1080    1.2460 C   0  0  0  0  0  2  0  0  0  0  0  0
   11.1040    5.0440   -0.0630 O   0  0  0  0  0  0  0  0  0  0  0  0
   11.8710    3.8350   -0.1380 C   0  0  0  0  0  2  0  0  0  0  0  0
  2  3  1  0  0  0  0
  2  1  2  0  0  0  0
  4 26  1  0  0  0  0
  4  3  2  0  0  0  0
  5  4  1  0  0  0  0
  6  5  2  0  0  0  0
  7  6  1  0  0  0  0
  8  7  2  0  0  0  0
  8  9  1  0  0  0  0
  9 10  2  0  0  0  0
 10  5  1  0  0  0  0
 10 11  1  0  0  0  0
 11  2  1  0  0  0  0
 12  3  1  1  0  0  0
 12 13  1  0  0  0  0
 13 14  1  0  0  0  0
 14 15  2  0  0  0  0
 14 16  2  0  0  0  0
 17 14  1  0  0  0  0
 17 18  1  0  0  0  0
 19 18  2  0  0  0  0
 20 19  1  0  0  0  0
 21 22  1  0  0  0  0
 21 20  2  0  0  0  0
 22 17  2  0  0  0  0
 23 12  1  0  0  0  0
 23 22  1  0  0  0  0
 24 13  1  0  0  0  0
 25 23  1  0  0  0  0
 27 26  1  0  0  0  0
 28 11  1  0  0  0  0
 29 28  1  6  0  0  0
 29 30  1  0  0  0  0
 31 30  1  0  0  0  0
 32 31  1  0  0  0  0
 33 32  1  0  0  0  0
 33 29  1  0  0  0  0
M  END
>  <minimizedAffinity>
-7.276299

$$$$

 OpenBabel09132200013D

 33 37  0  0  1  0  0  0  0  0999 V2000
    9.0100    0.7340    2.7890 O   0  0  0  0  0  0  0  0  0  0  0  0
    9.4070    0.1540    1.7730 C   0  0  0  0  0  0  0  0  0  0  0  0
   10.1470    0.9680    0.7600 C   0  0  0  0  0  0  0  0  0  0  0  0
   10.6770    0.3420   -0.3040 C   0  0  0  0  0  0  0  0  0  0  0  0
   10.6170   -1.1230   -0.4500 C   0  0  0  0  0  0  0  0  0  0  0  0
   11.3500   -1.7930   -1.4500 C   0  0  0  0  0  3  0  0  0  0  0  0
   11.2610   -3.1740   -1.6040 C   0  0  0  0  0  3  0  0  0  0  0  0
   10.4510   -3.9070   -0.7520 C   0  0  0  0  0  3  0  0  0  0  0  0
    9.7470   -3.2630    0.2680 C   0  0  0  0  0  3  0  0  0  0  0  0
    9.8270   -1.8710    0.4440 C   0  0  0  0  0  0  0  0  0  0  0  0
    9.1690   -1.1930    1.5200 N   0  0  0  0  0  0  0  0  0  0  0  0
   10.2330    2.4590    0.9970 C   0  0  1  0  0  3  0  0  0  0  0  0
   10.0330    3.3010    0.0130 N   0  0  0  0  0  0  0  0  0  0  0  0
   10.0870    4.8990    0.0960 S   0  0  0  0  0  0  0  0  0  0  0  0
   11.2370    5.3810   -0.6470 O   0  0  0  0  0  0  0  0  0  0  0  0
    8.7720    5.4350   -0.2030 O   0  0  0  0  0  0  0  0  0  0  0  0
   10.4000    5.3150    1.7790 C   0  0  0  0  0  0  0  0  0  0  0  0
   10.4510    6.6610    2.1580 C   0  0  0  0  0  3  0  0  0  0  0  0
   10.6960    6.9820    3.4910 C   0  0  0  0  0  3  0  0  0  0  0  0
   10.8840    5.9620    4.4230 C   0  0  0  0  0  3  0  0  0  0  0  0
   10.8280    4.6220    4.0250 C   0  0  0  0  0  3  0  0  0  0  0  0
   10.5820    4.2840    2.6910 C   0  0  0  0  0  0  0  0  0  0  0  0
   10.5130    2.9560    2.2910 N   0  0  0  0  0  0  0  0  0  0  0  0
    9.8170    2.9100   -0.8990 H   0  0  0  0  0  0  0  0  0  0  0  0
   10.6480    2.2340    3.0000 H   0  0  0  0  0  0  0  0  0  0  0  0
   11.2760    1.0640   -1.3290 O   0  0  0  0  0  0  0  0  0  0  0  0
   11.1140    0.5900   -2.1670 H   0  0  0  0  0  0  0  0  0  0  0  0
    8.2680   -1.8970    2.4420 C   0  0  0  0  0  2  0  0  0  0  0  0
    8.9270   -2.8200    3.4950 C   0  0  2  0  0  3  0  0  0  0  0  0
    8.2790   -2.8250    4.8660 C   0  0  0  0  0  2  0  0  0  0  0  0
    9.0240   -1.7480    5.6370 C   0  0  0  0  0  2  0  0  0  0  0  0
   10.2300   -1.4610    4.9150 O   0  0  0  0  0  0  0  0  0  0  0  0
   10.3490   -2.4280    3.8630 C   0  0  0  0  0  2  0  0  0  0  0  0
  2  1  2  0  0  0  0
  3  2  1  0  0  0  0
  4  3  2  0  0  0  0
  5  4  1  0  0  0  0
  5 10  1  0  0  0  0
  6  5  2  0  0  0  0
  7  6  1  0  0  0  0
  7  8  2  0  0  0  0
  8  9  1  0  0  0  0
  9 10  2  0  0  0  0
 10 11  1  0  0  0  0
 11  2  1  0  0  0  0
 11 28  1  0  0  0  0
 12  3  1  1  0  0  0
 12 23  1  0  0  0  0
 13 14  1  0  0  0  0
 13 12  1  0  0  0  0
 14 17  1  0  0  0  0
 15 14  2  0  0  0  0
 16 14  2  0  0  0  0
 17 18  2  0  0  0  0
 17 22  1  0  0  0  0
 18 19  1  0  0  0  0
 19 20  2  0  0  0  0
 21 20  1  0  0  0  0
 22 21  2  0  0  0  0
 23 22  1  0  0  0  0
 23 25  1  0  0  0  0
 24 13  1  0  0  0  0
 26  4  1  0  0  0  0
 27 26  1  0  0  0  0
 29 28  1  6  0  0  0
 29 33  1  0  0  0  0
 29 30  1  0  0  0  0
 30 31  1  0  0  0  0
 32 31  1  0  0  0  0
 33 32  1  0  0  0  0
M  END
>  <minimizedAffinity>
-7.20452547

$$$$

 OpenBabel09132200013D

 33 37  0  0  1  0  0  0  0  0999 V2000
    9.5390    0.6670    3.1470 O   0  0  0  0  0  0  0  0  0  0  0  0
    9.8860    0.9290    1.9900 C   0  0  0  0  0  0  0  0  0  0  0  0
   10.5660    2.2400    1.7550 C   0  0  0  0  0  0  0  0  0  0  0  0
   11.0430    2.5040    0.5270 C   0  0  1  0  0  3  0  0  0  0  0  0
   10.9840    1.5100   -0.5580 C   0  0  0  0  0  0  0  0  0  0  0  0
   11.6670    1.7070   -1.7740 C   0  0  0  0  0  3  0  0  0  0  0  0
   11.5770    0.7800   -2.8090 C   0  0  0  0  0  3  0  0  0  0  0  0
   10.8170   -0.3660   -2.6370 C   0  0  0  0  0  3  0  0  0  0  0  0
   10.1650   -0.5950   -1.4230 C   0  0  0  0  0  3  0  0  0  0  0  0
   10.2460    0.3260   -0.3650 C   0  0  0  0  0  0  0  0  0  0  0  0
    9.6420    0.0870    0.9110 N   0  0  0  0  0  0  0  0  0  0  0  0
   10.6570    3.1940    2.9250 C   0  0  0  0  0  0  0  0  0  0  0  0
   10.2770    2.8160    4.1200 N   0  0  0  0  0  0  0  0  0  0  0  0
   10.3070    3.6980    5.4570 S   0  0  0  0  0  0  0  0  0  0  0  0
    8.9480    3.9870    5.8740 O   0  0  0  0  0  0  0  0  0  0  0  0
   11.2280    3.0960    6.4030 O   0  0  0  0  0  0  0  0  0  0  0  0
   11.0140    5.2530    5.0280 C   0  0  0  0  0  0  0  0  0  0  0  0
   11.2110    6.2180    6.0230 C   0  0  0  0  0  3  0  0  0  0  0  0
   11.7740    7.4440    5.6780 C   0  0  0  0  0  3  0  0  0  0  0  0
   12.1310    7.6900    4.3520 C   0  0  0  0  0  3  0  0  0  0  0  0
   11.9270    6.7130    3.3720 C   0  0  0  0  0  3  0  0  0  0  0  0
   11.3650    5.4770    3.7040 C   0  0  0  0  0  0  0  0  0  0  0  0
   11.1710    4.4980    2.7390 N   0  0  0  0  0  0  0  0  0  0  0  0
    9.9290    1.8680    4.2220 H   0  0  0  0  0  0  0  0  0  0  0  0
   11.4510    4.7070    1.7790 H   0  0  0  0  0  0  0  0  0  0  0  0
   11.5830    3.7490    0.2270 O   0  0  0  0  0  0  0  0  0  0  0  0
   11.3810    3.9490   -0.7070 H   0  0  0  0  0  0  0  0  0  0  0  0
    8.7940   -1.0870    1.1570 C   0  0  0  0  0  2  0  0  0  0  0  0
    9.5150   -2.4010    1.5460 C   0  0  2  0  0  3  0  0  0  0  0  0
    9.0420   -3.6500    0.8280 C   0  0  0  0  0  2  0  0  0  0  0  0
    7.9570   -4.2130    1.7300 C   0  0  0  0  0  2  0  0  0  0  0  0
    8.0950   -3.5830    3.0120 O   0  0  0  0  0  0  0  0  0  0  0  0
    9.3080   -2.8190    2.9930 C   0  0  0  0  0  2  0  0  0  0  0  0
  2  1  2  0  0  0  0
  3  2  1  0  0  0  0
  3 12  2  0  0  0  0
  4 26  1  6  0  0  0
  4  3  1  0  0  0  0
  5 10  1  0  0  0  0
  5  4  1  0  0  0  0
  6  5  2  0  0  0  0
  7  8  2  0  0  0  0
  7  6  1  0  0  0  0
  8  9  1  0  0  0  0
  9 10  2  0  0  0  0
 10 11  1  0  0  0  0
 11 28  1  0  0  0  0
 11  2  1  0  0  0  0
 12 13  1  0  0  0  0
 13 24  1  0  0  0  0
 13 14  1  0  0  0  0
 14 15  2  0  0  0  0
 14 16  2  0  0  0  0
 17 14  1  0  0  0  0
 17 18  1  0  0  0  0
 19 18  2  0  0  0  0
 20 19  1  0  0  0  0
 21 22  1  0  0  0  0
 21 20  2  0  0  0  0
 22 17  2  0  0  0  0
 23 12  1  0  0  0  0
 23 22  1  0  0  0  0
 25 23  1  0  0  0  0
 27 26  1  0  0  0  0
 29 28  1  6  0  0  0
 29 33  1  0  0  0  0
 30 29  1  0  0  0  0
 30 31  1  0  0  0  0
 31 32  1  0  0  0  0
 33 32  1  0  0  0  0
M  END
>  <minimizedAffinity>
-6.93563557

$$$$

 OpenBabel09132200013D

 33 37  0  0  1  0  0  0  0  0999 V2000
    9.6050    0.4540    2.2060 O   0  0  0  0  0  0  0  0  0  0  0  0
    9.4640   -0.7630    2.0460 C   0  0  0  0  0  0  0  0  0  0  0  0
    9.3340   -1.6090    3.2720 C   0  0  0  0  0  0  0  0  0  0  0  0
    9.0780   -2.9190    3.1240 C   0  0  0  0  0  0  0  0  0  0  0  0
    8.8450   -3.5180    1.7980 C   0  0  0  0  0  0  0  0  0  0  0  0
    8.3730   -4.8390    1.6610 C   0  0  0  0  0  3  0  0  0  0  0  0
    8.1890   -5.4100    0.4050 C   0  0  0  0  0  3  0  0  0  0  0  0
    8.4580   -4.6650   -0.7320 C   0  0  0  0  0  3  0  0  0  0  0  0
    8.8900   -3.3420   -0.6130 C   0  0  0  0  0  3  0  0  0  0  0  0
    9.0780   -2.7450    0.6440 C   0  0  0  0  0  0  0  0  0  0  0  0
    9.4570   -1.3730    0.7960 N   0  0  0  0  0  0  0  0  0  0  0  0
    9.5170   -0.9250    4.6090 C   0  0  1  0  0  3  0  0  0  0  0  0
    8.7990   -1.2870    5.6430 N   0  0  0  0  0  0  0  0  0  0  0  0
    8.8690   -0.6690    7.1190 S   0  0  0  0  0  0  0  0  0  0  0  0
    7.6430    0.0550    7.3970 O   0  0  0  0  0  0  0  0  0  0  0  0
    9.3140   -1.6950    8.0430 O   0  0  0  0  0  0  0  0  0  0  0  0
   10.1450    0.5450    7.1060 C   0  0  0  0  0  0  0  0  0  0  0  0
   10.4650    1.2220    8.2890 C   0  0  0  0  0  3  0  0  0  0  0  0
   11.4770    2.1790    8.2720 C   0  0  0  0  0  3  0  0  0  0  0  0
   12.1540    2.4460    7.0820 C   0  0  0  0  0  3  0  0  0  0  0  0
   11.8200    1.7590    5.9090 C   0  0  0  0  0  3  0  0  0  0  0  0
   10.8080    0.7950    5.9110 C   0  0  0  0  0  0  0  0  0  0  0  0
   10.4800    0.1000    4.7550 N   0  0  0  0  0  0  0  0  0  0  0  0
    8.1290   -2.0380    5.5080 H   0  0  0  0  0  0  0  0  0  0  0  0
   11.0000    0.3140    3.9030 H   0  0  0  0  0  0  0  0  0  0  0  0
    9.0580   -3.7680    4.2230 O   0  0  0  0  0  0  0  0  0  0  0  0
    9.3880   -4.6420    3.9370 H   0  0  0  0  0  0  0  0  0  0  0  0
    9.7920   -0.5310   -0.3600 C   0  0  0  0  0  2  0  0  0  0  0  0
   11.2540   -0.5900   -0.8670 C   0  0  2  0  0  3  0  0  0  0  0  0
   11.7730    0.6720   -1.5300 C   0  0  0  0  0  2  0  0  0  0  0  0
   11.4650    0.4740   -3.0050 C   0  0  0  0  0  2  0  0  0  0  0  0
   11.1840   -0.9190   -3.2020 O   0  0  0  0  0  0  0  0  0  0  0  0
   11.4880   -1.6010   -1.9770 C   0  0  0  0  0  2  0  0  0  0  0  0
  2  1  2  0  0  0  0
  2  3  1  0  0  0  0
  4  3  2  0  0  0  0
  4 26  1  0  0  0  0
  5  4  1  0  0  0  0
  6  5  1  0  0  0  0
  7  6  2  0  0  0  0
  8  9  2  0  0  0  0
  8  7  1  0  0  0  0
  9 10  1  0  0  0  0
 10 11  1  0  0  0  0
 10  5  2  0  0  0  0
 11  2  1  0  0  0  0
 12  3  1  1  0  0  0
 12 23  1  0  0  0  0
 12 13  1  0  0  0  0
 13 14  1  0  0  0  0
 14 15  2  0  0  0  0
 14 16  2  0  0  0  0
 17 14  1  0  0  0  0
 17 18  1  0  0  0  0
 19 18  2  0  0  0  0
 20 19  1  0  0  0  0
 21 22  1  0  0  0  0
 21 20  2  0  0  0  0
 22 17  2  0  0  0  0
 23 22  1  0  0  0  0
 24 13  1  0  0  0  0
 25 23  1  0  0  0  0
 27 26  1  0  0  0  0
 28 11  1  0  0  0  0
 29 28  1  6  0  0  0
 30 29  1  0  0  0  0
 31 30  1  0  0  0  0
 32 31  1  0  0  0  0
 32 33  1  0  0  0  0
 33 29  1  0  0  0  0
M  END
>  <minimizedAffinity>
-6.84219265

$$$$

 OpenBabel09132200013D

 33 37  0  0  1  0  0  0  0  0999 V2000
   10.8050    1.7570    3.4840 O   0  0  0  0  0  0  0  0  0  0  0  0
   10.6730    2.8220    2.8710 C   0  0  0  0  0  0  0  0  0  0  0  0
   10.2670    2.7450    1.4340 C   0  0  0  0  0  0  0  0  0  0  0  0
   10.0180    3.8890    0.7750 C   0  0  0  0  0  0  0  0  0  0  0  0
   10.0570    5.1970    1.4510 C   0  0  0  0  0  0  0  0  0  0  0  0
    9.5950    6.3670    0.8160 C   0  0  0  0  0  3  0  0  0  0  0  0
    9.6680    7.6050    1.4490 C   0  0  0  0  0  3  0  0  0  0  0  0
   10.1880    7.6900    2.7300 C   0  0  0  0  0  3  0  0  0  0  0  0
   10.6160    6.5340    3.3870 C   0  0  0  0  0  3  0  0  0  0  0  0
   10.5470    5.2750    2.7690 C   0  0  0  0  0  0  0  0  0  0  0  0
   10.9170    4.0660    3.4420 N   0  0  0  0  0  0  0  0  0  0  0  0
   10.1790    1.3690    0.8110 C   0  0  1  0  0  3  0  0  0  0  0  0
   10.6790    1.1460   -0.3790 N   0  0  0  0  0  0  0  0  0  0  0  0
   10.6690   -0.2430   -1.1760 S   0  0  0  0  0  0  0  0  0  0  0  0
    9.7930   -0.1320   -2.3270 O   0  0  0  0  0  0  0  0  0  0  0  0
   12.0360   -0.6930   -1.3640 O   0  0  0  0  0  0  0  0  0  0  0  0
    9.9170   -1.4340   -0.1190 C   0  0  0  0  0  0  0  0  0  0  0  0
    9.8170   -2.7650   -0.5420 C   0  0  0  0  0  3  0  0  0  0  0  0
    9.2240   -3.7020    0.3010 C   0  0  0  0  0  3  0  0  0  0  0  0
    8.7420   -3.3020    1.5470 C   0  0  0  0  0  3  0  0  0  0  0  0
    8.8520   -1.9670    1.9520 C   0  0  0  0  0  3  0  0  0  0  0  0
    9.4460   -1.0160    1.1190 C   0  0  0  0  0  0  0  0  0  0  0  0
    9.5700    0.3080    1.5190 N   0  0  0  0  0  0  0  0  0  0  0  0
   11.1250    1.9260   -0.8520 H   0  0  0  0  0  0  0  0  0  0  0  0
    9.2130    0.5660    2.4400 H   0  0  0  0  0  0  0  0  0  0  0  0
    9.7470    3.8800   -0.5880 O   0  0  0  0  0  0  0  0  0  0  0  0
   10.1090    4.7000   -0.9740 H   0  0  0  0  0  0  0  0  0  0  0  0
   11.5080    4.0800    4.7870 C   0  0  0  0  0  2  0  0  0  0  0  0
   10.5480    4.3510    5.9700 C   0  0  2  0  0  3  0  0  0  0  0  0
   11.0020    3.8320    7.3210 C   0  0  0  0  0  2  0  0  0  0  0  0
   10.3990    2.4410    7.4100 C   0  0  0  0  0  2  0  0  0  0  0  0
    9.3770    2.3510    6.4070 O   0  0  0  0  0  0  0  0  0  0  0  0
    9.2000    3.6590    5.8480 C   0  0  0  0  0  2  0  0  0  0  0  0
  2 11  1  0  0  0  0
  2  1  2  0  0  0  0
  3  2  1  0  0  0  0
  4  3  2  0  0  0  0
  4  5  1  0  0  0  0
  5 10  1  0  0  0  0
  6  7  1  0  0  0  0
  6  5  2  0  0  0  0
  7  8  2  0  0  0  0
  8  9  1  0  0  0  0
 10  9  2  0  0  0  0
 10 11  1  0  0  0  0
 11 28  1  0  0  0  0
 12  3  1  1  0  0  0
 12 23  1  0  0  0  0
 13 12  1  0  0  0  0
 14 13  1  0  0  0  0
 14 17  1  0  0  0  0
 15 14  2  0  0  0  0
 16 14  2  0  0  0  0
 17 22  1  0  0  0  0
 18 17  2  0  0  0  0
 18 19  1  0  0  0  0
 19 20  2  0  0  0  0
 20 21  1  0  0  0  0
 22 23  1  0  0  0  0
 22 21  2  0  0  0  0
 23 25  1  0  0  0  0
 24 13  1  0  0  0  0
 26  4  1  0  0  0  0
 27 26  1  0  0  0  0
 29 28  1  6  0  0  0
 29 30  1  0  0  0  0
 30 31  1  0  0  0  0
 32 31  1  0  0  0  0
 33 29  1  0  0  0  0
 33 32  1  0  0  0  0
M  END
>  <minimizedAffinity>
-6.73917866

$$$$

 OpenBabel09132200013D

 33 37  0  0  1  0  0  0  0  0999 V2000
    9.6350    0.5360    1.8820 O   0  0  0  0  0  0  0  0  0  0  0  0
    9.8350    0.2960    3.0780 C   0  0  0  0  0  0  0  0  0  0  0  0
    9.7990   -1.1360    3.5080 C   0  0  0  0  0  0  0  0  0  0  0  0
   10.1130   -1.4320    4.7800 C   0  0  0  0  0  0  0  0  0  0  0  0
   10.5670   -0.3980    5.7270 C   0  0  0  0  0  0  0  0  0  0  0  0
   11.0940   -0.7370    6.9890 C   0  0  0  0  0  3  0  0  0  0  0  0
   11.4880    0.2460    7.8920 C   0  0  0  0  0  3  0  0  0  0  0  0
   11.3760    1.5820    7.5420 C   0  0  0  0  0  3  0  0  0  0  0  0
   10.8910    1.9340    6.2800 C   0  0  0  0  0  3  0  0  0  0  0  0
   10.4920    0.9580    5.3520 C   0  0  0  0  0  0  0  0  0  0  0  0
   10.0530    1.2860    4.0290 N   0  0  0  0  0  0  0  0  0  0  0  0
    9.3900   -2.1610    2.4740 C   0  0  1  0  0  3  0  0  0  0  0  0
   10.0920   -2.3150    1.3790 N   0  0  0  0  0  0  0  0  0  0  0  0
    9.7980   -3.3490    0.1910 S   0  0  0  0  0  0  0  0  0  0  0  0
    9.3980   -2.6170   -0.9960 O   0  0  0  0  0  0  0  0  0  0  0  0
   10.8910   -4.2990    0.1070 O   0  0  0  0  0  0  0  0  0  0  0  0
    8.3860   -4.2880    0.6690 C   0  0  0  0  0  0  0  0  0  0  0  0
    7.9250   -5.3120   -0.1670 C   0  0  0  0  0  3  0  0  0  0  0  0
    6.8110   -6.0530    0.2180 C   0  0  0  0  0  3  0  0  0  0  0  0
    6.1740   -5.7650    1.4250 C   0  0  0  0  0  3  0  0  0  0  0  0
    6.6500   -4.7370    2.2480 C   0  0  0  0  0  3  0  0  0  0  0  0
    7.7680   -3.9860    1.8750 C   0  0  0  0  0  0  0  0  0  0  0  0
    8.2540   -2.9740    2.6910 N   0  0  0  0  0  0  0  0  0  0  0  0
   10.9120   -1.7280    1.2630 H   0  0  0  0  0  0  0  0  0  0  0  0
    7.7690   -2.7930    3.5720 H   0  0  0  0  0  0  0  0  0  0  0  0
    9.9880   -2.7290    5.2600 O   0  0  0  0  0  0  0  0  0  0  0  0
    9.7330   -2.6800    6.2020 H   0  0  0  0  0  0  0  0  0  0  0  0
    9.8770    2.6790    3.5970 C   0  0  0  0  0  2  0  0  0  0  0  0
   11.1310    3.4080    3.0570 C   0  0  2  0  0  3  0  0  0  0  0  0
   11.3930    4.7860    3.6320 C   0  0  0  0  0  2  0  0  0  0  0  0
   10.6790    5.7310    2.6800 C   0  0  0  0  0  2  0  0  0  0  0  0
   10.4030    5.0000    1.4770 O   0  0  0  0  0  0  0  0  0  0  0  0
   11.0710    3.7340    1.5740 C   0  0  0  0  0  2  0  0  0  0  0  0
  1  2  2  0  0  0  0
  2  3  1  0  0  0  0
  2 11  1  0  0  0  0
  3  4  2  0  0  0  0
  4 26  1  0  0  0  0
  4  5  1  0  0  0  0
  5  6  1  0  0  0  0
  6  7  2  0  0  0  0
  8  7  1  0  0  0  0
  9  8  2  0  0  0  0
 10  5  2  0  0  0  0
 10  9  1  0  0  0  0
 11 10  1  0  0  0  0
 12 23  1  0  0  0  0
 12  3  1  1  0  0  0
 13 12  1  0  0  0  0
 14 17  1  0  0  0  0
 14 13  1  0  0  0  0
 15 14  2  0  0  0  0
 16 14  2  0  0  0  0
 17 22  1  0  0  0  0
 18 19  1  0  0  0  0
 18 17  2  0  0  0  0
 19 20  2  0  0  0  0
 20 21  1  0  0  0  0
 22 21  2  0  0  0  0
 22 23  1  0  0  0  0
 23 25  1  0  0  0  0
 24 13  1  0  0  0  0
 26 27  1  0  0  0  0
 28 11  1  0  0  0  0
 29 28  1  1  0  0  0
 29 30  1  0  0  0  0
 31 30  1  0  0  0  0
 32 33  1  0  0  0  0
 32 31  1  0  0  0  0
 33 29  1  0  0  0  0
M  END
>  <minimizedAffinity>
-6.54391289

$$$$

 OpenBabel09132200013D

 33 37  0  0  1  0  0  0  0  0999 V2000
    9.2700   -0.7500    4.6040 O   0  0  0  0  0  0  0  0  0  0  0  0
    9.1020   -1.2790    3.5000 C   0  0  0  0  0  0  0  0  0  0  0  0
    9.4290   -0.4650    2.2890 C   0  0  0  0  0  0  0  0  0  0  0  0
    9.3530   -1.0510    1.0820 C   0  0  0  0  0  0  0  0  0  0  0  0
    9.0380   -2.4830    0.9340 C   0  0  0  0  0  0  0  0  0  0  0  0
    9.1630   -3.1390   -0.3060 C   0  0  0  0  0  3  0  0  0  0  0  0
    8.8290   -4.4830   -0.4460 C   0  0  0  0  0  3  0  0  0  0  0  0
    8.3810   -5.1960    0.6550 C   0  0  0  0  0  3  0  0  0  0  0  0
    8.2860   -4.5690    1.9000 C   0  0  0  0  0  3  0  0  0  0  0  0
    8.6220   -3.2150    2.0640 C   0  0  0  0  0  0  0  0  0  0  0  0
    8.5980   -2.5650    3.3390 N   0  0  0  0  0  0  0  0  0  0  0  0
    9.8120    0.9820    2.5080 C   0  0  1  0  0  3  0  0  0  0  0  0
   10.2830    1.3750    3.6650 N   0  0  0  0  0  0  0  0  0  0  0  0
   10.7320    2.8610    4.0590 S   0  0  0  0  0  0  0  0  0  0  0  0
    9.8050    3.4010    5.0360 O   0  0  0  0  0  0  0  0  0  0  0  0
   12.1540    2.8670    4.3490 O   0  0  0  0  0  0  0  0  0  0  0  0
   10.5360    3.8540    2.6180 C   0  0  0  0  0  0  0  0  0  0  0  0
   10.9040    5.2050    2.6560 C   0  0  0  0  0  3  0  0  0  0  0  0
   10.7500    5.9830    1.5120 C   0  0  0  0  0  3  0  0  0  0  0  0
   10.2340    5.4080    0.3500 C   0  0  0  0  0  3  0  0  0  0  0  0
    9.8730    4.0560    0.3310 C   0  0  0  0  0  3  0  0  0  0  0  0
   10.0240    3.2620    1.4710 C   0  0  0  0  0  0  0  0  0  0  0  0
    9.6790    1.9170    1.4560 N   0  0  0  0  0  0  0  0  0  0  0  0
   10.3810    0.6740    4.3930 H   0  0  0  0  0  0  0  0  0  0  0  0
    9.3120    1.5250    0.5880 H   0  0  0  0  0  0  0  0  0  0  0  0
    9.5370   -0.3120   -0.0800 O   0  0  0  0  0  0  0  0  0  0  0  0
    8.9640   -0.6920   -0.7730 H   0  0  0  0  0  0  0  0  0  0  0  0
    8.1010   -3.2440    4.5430 C   0  0  0  0  0  2  0  0  0  0  0  0
    6.7130   -2.8070    5.0700 C   0  0  2  0  0  3  0  0  0  0  0  0
    6.6510   -2.4400    6.5400 C   0  0  0  0  0  2  0  0  0  0  0  0
    6.2840   -3.7390    7.2360 C   0  0  0  0  0  2  0  0  0  0  0  0
    5.7860   -4.6370    6.2340 O   0  0  0  0  0  0  0  0  0  0  0  0
    5.6550   -3.8970    5.0130 C   0  0  0  0  0  2  0  0  0  0  0  0
  2  1  2  0  0  0  0
  3  2  1  0  0  0  0
  4  3  2  0  0  0  0
  5  4  1  0  0  0  0
  5 10  1  0  0  0  0
  6  5  2  0  0  0  0
  7  6  1  0  0  0  0
  7  8  2  0  0  0  0
  8  9  1  0  0  0  0
  9 10  2  0  0  0  0
 10 11  1  0  0  0  0
 11  2  1  0  0  0  0
 11 28  1  0  0  0  0
 12  3  1  6  0  0  0
 12 13  1  0  0  0  0
 13 14  1  0  0  0  0
 13 24  1  0  0  0  0
 14 16  2  0  0  0  0
 14 15  2  0  0  0  0
 17 18  1  0  0  0  0
 17 14  1  0  0  0  0
 19 18  2  0  0  0  0
 20 19  1  0  0  0  0
 21 20  2  0  0  0  0
 21 22  1  0  0  0  0
 22 17  2  0  0  0  0
 23 22  1  0  0  0  0
 23 12  1  0  0  0  0
 25 23  1  0  0  0  0
 26  4  1  0  0  0  0
 27 26  1  0  0  0  0
 29 28  1  1  0  0  0
 29 30  1  0  0  0  0
 30 31  1  0  0  0  0
 32 31  1  0  0  0  0
 33 29  1  0  0  0  0
 33 32  1  0  0  0  0
M  END
>  <minimizedAffinity>
-6.40204382

$$$$
