
 OpenBabel09132204463D

 33 37  0  0  1  0  0  0  0  0999 V2000
    9.7880    1.5900    3.1800 O   0  0  0  0  0  0  0  0  0  0  0  0
   10.0830    1.6190    1.9800 C   0  0  0  0  0  0  0  0  0  0  0  0
   10.7900    2.8360    1.4740 C   0  0  0  0  0  0  0  0  0  0  0  0
   11.2120    2.8490    0.1990 C   0  0  0  0  0  0  0  0  0  0  0  0
   11.0680    1.6740   -0.6780 C   0  0  0  0  0  0  0  0  0  0  0  0
   11.6940    1.6150   -1.9380 C   0  0  0  0  0  3  0  0  0  0  0  0
   11.5240    0.5160   -2.7760 C   0  0  0  0  0  3  0  0  0  0  0  0
   10.7390   -0.5470   -2.3600 C   0  0  0  0  0  3  0  0  0  0  0  0
   10.1420   -0.5210   -1.0970 C   0  0  0  0  0  3  0  0  0  0  0  0
   10.3050    0.5760   -0.2340 C   0  0  0  0  0  0  0  0  0  0  0  0
    9.7590    0.6020    1.0890 N   0  0  0  0  0  0  0  0  0  0  0  0
   10.9690    3.9860    2.4400 C   0  0  1  0  0  3  0  0  0  0  0  0
   10.6980    5.2130    2.0680 N   0  0  0  0  0  0  0  0  0  0  0  0
   10.8320    6.5350    2.9630 S   0  0  0  0  0  0  0  0  0  0  0  0
   11.9120    7.3560    2.4480 O   0  0  0  0  0  0  0  0  0  0  0  0
    9.5180    7.1210    3.1450 O   0  0  0  0  0  0  0  0  0  0  0  0
   11.3490    6.0180    4.5650 C   0  0  0  0  0  0  0  0  0  0  0  0
   11.5030    6.9700    5.5800 C   0  0  0  0  0  3  0  0  0  0  0  0
   11.9090    6.5550    6.8450 C   0  0  0  0  0  3  0  0  0  0  0  0
   12.1540    5.2020    7.0820 C   0  0  0  0  0  3  0  0  0  0  0  0
   11.9950    4.2650    6.0550 C   0  0  0  0  0  3  0  0  0  0  0  0
   11.5860    4.6670    4.7800 C   0  0  0  0  0  0  0  0  0  0  0  0
   11.4140    3.7420    3.7600 N   0  0  0  0  0  0  0  0  0  0  0  0
   10.3640    5.3510    1.1190 H   0  0  0  0  0  0  0  0  0  0  0  0
   11.5940    2.7580    3.9680 H   0  0  0  0  0  0  0  0  0  0  0  0
   11.7740    3.9940   -0.3520 O   0  0  0  0  0  0  0  0  0  0  0  0
   11.5310    4.0260   -1.2970 H   0  0  0  0  0  0  0  0  0  0  0  0
    8.8900   -0.4720    1.5880 C   0  0  0  0  0  2  0  0  0  0  0  0
    9.5880   -1.7480    2.1170 C   0  0  2  0  0  3  0  0  0  0  0  0
    9.2160   -3.0420    1.4190 C   0  0  0  0  0  2  0  0  0  0  0  0
    8.0520   -3.5840    2.2300 C   0  0  0  0  0  2  0  0  0  0  0  0
    8.0420   -2.8890    3.4850 O   0  0  0  0  0  0  0  0  0  0  0  0
    9.2370   -2.0990    3.5540 C   0  0  0  0  0  2  0  0  0  0  0  0
  2  1  2  0  0  0  0
  3  2  1  0  0  0  0
  4  3  2  0  0  0  0
  5 10  1  0  0  0  0
  5  4  1  0  0  0  0
  6  5  2  0  0  0  0
  7  8  2  0  0  0  0
  7  6  1  0  0  0  0
  8  9  1  0  0  0  0
  9 10  2  0  0  0  0
 10 11  1  0  0  0  0
 11 28  1  0  0  0  0
 11  2  1  0  0  0  0
 12  3  1  1  0  0  0
 12 23  1  0  0  0  0
 13 12  1  0  0  0  0
 13 14  1  0  0  0  0
 14 16  2  0  0  0  0
 14 17  1  0  0  0  0
 15 14  2  0  0  0  0
 17 22  2  0  0  0  0
 17 18  1  0  0  0  0
 18 19  2  0  0  0  0
 19 20  1  0  0  0  0
 21 20  2  0  0  0  0
 22 21  1  0  0  0  0
 23 25  1  0  0  0  0
 23 22  1  0  0  0  0
 24 13  1  0  0  0  0
 26  4  1  0  0  0  0
 27 26  1  0  0  0  0
 29 28  1  6  0  0  0
 29 33  1  0  0  0  0
 30 29  1  0  0  0  0
 30 31  1  0  0  0  0
 31 32  1  0  0  0  0
 32 33  1  0  0  0  0
M  END
>  <minimizedAffinity>
-7.73116446

$$$$
