
 OpenBabel09132204463D

 33 37  0  0  1  0  0  0  0  0999 V2000
    8.6520    0.7530    2.1480 O   0  0  0  0  0  0  0  0  0  0  0  0
    9.3770    0.0700    1.4160 C   0  0  0  0  0  0  0  0  0  0  0  0
    9.5380   -1.3760    1.7610 C   0  0  0  0  0  0  0  0  0  0  0  0
   10.2380   -2.1610    0.9260 C   0  0  0  0  0  0  0  0  0  0  0  0
   10.7740   -1.6530   -0.3500 C   0  0  0  0  0  0  0  0  0  0  0  0
   11.3210   -2.5200   -1.3150 C   0  0  0  0  0  3  0  0  0  0  0  0
   11.8580   -2.0290   -2.5020 C   0  0  0  0  0  3  0  0  0  0  0  0
   11.8410   -0.6660   -2.7490 C   0  0  0  0  0  3  0  0  0  0  0  0
   11.2680    0.2050   -1.8180 C   0  0  0  0  0  3  0  0  0  0  0  0
   10.7170   -0.2710   -0.6160 C   0  0  0  0  0  0  0  0  0  0  0  0
   10.0660    0.5900    0.3250 N   0  0  0  0  0  0  0  0  0  0  0  0
    8.9090   -1.8560    3.0500 C   0  0  1  0  0  3  0  0  0  0  0  0
    9.4110   -1.4990    4.2060 N   0  0  0  0  0  0  0  0  0  0  0  0
    8.8680   -1.9170    5.6550 S   0  0  0  0  0  0  0  0  0  0  0  0
    9.8270   -2.7980    6.2930 O   0  0  0  0  0  0  0  0  0  0  0  0
    8.4190   -0.7280    6.3550 O   0  0  0  0  0  0  0  0  0  0  0  0
    7.4240   -2.8920    5.3980 C   0  0  0  0  0  0  0  0  0  0  0  0
    6.7030   -3.3610    6.5030 C   0  0  0  0  0  3  0  0  0  0  0  0
    5.5610   -4.1290    6.2920 C   0  0  0  0  0  3  0  0  0  0  0  0
    5.1530   -4.4170    4.9900 C   0  0  0  0  0  3  0  0  0  0  0  0
    5.8870   -3.9400    3.8980 C   0  0  0  0  0  3  0  0  0  0  0  0
    7.0340   -3.1670    4.0930 C   0  0  0  0  0  0  0  0  0  0  0  0
    7.7600   -2.6790    3.0150 N   0  0  0  0  0  0  0  0  0  0  0  0
   10.2250   -0.8930    4.1960 H   0  0  0  0  0  0  0  0  0  0  0  0
    7.4300   -2.9020    2.0740 H   0  0  0  0  0  0  0  0  0  0  0  0
   10.5110   -3.4830    1.2540 O   0  0  0  0  0  0  0  0  0  0  0  0
   11.3830   -3.7130    0.8800 H   0  0  0  0  0  0  0  0  0  0  0  0
   10.0390    2.0470    0.1500 C   0  0  0  0  0  2  0  0  0  0  0  0
   11.1920    2.8510    0.8000 C   0  0  2  0  0  3  0  0  0  0  0  0
   10.7920    3.7800    1.9310 C   0  0  0  0  0  2  0  0  0  0  0  0
   10.5200    5.1080    1.2460 C   0  0  0  0  0  2  0  0  0  0  0  0
   11.1040    5.0440   -0.0630 O   0  0  0  0  0  0  0  0  0  0  0  0
   11.8710    3.8350   -0.1380 C   0  0  0  0  0  2  0  0  0  0  0  0
  2  3  1  0  0  0  0
  2  1  2  0  0  0  0
  4 26  1  0  0  0  0
  4  3  2  0  0  0  0
  5  4  1  0  0  0  0
  6  5  2  0  0  0  0
  7  6  1  0  0  0  0
  8  7  2  0  0  0  0
  8  9  1  0  0  0  0
  9 10  2  0  0  0  0
 10  5  1  0  0  0  0
 10 11  1  0  0  0  0
 11  2  1  0  0  0  0
 12  3  1  1  0  0  0
 12 13  1  0  0  0  0
 13 14  1  0  0  0  0
 14 15  2  0  0  0  0
 14 16  2  0  0  0  0
 17 14  1  0  0  0  0
 17 18  1  0  0  0  0
 19 18  2  0  0  0  0
 20 19  1  0  0  0  0
 21 22  1  0  0  0  0
 21 20  2  0  0  0  0
 22 17  2  0  0  0  0
 23 12  1  0  0  0  0
 23 22  1  0  0  0  0
 24 13  1  0  0  0  0
 25 23  1  0  0  0  0
 27 26  1  0  0  0  0
 28 11  1  0  0  0  0
 29 28  1  6  0  0  0
 29 30  1  0  0  0  0
 31 30  1  0  0  0  0
 32 31  1  0  0  0  0
 33 32  1  0  0  0  0
 33 29  1  0  0  0  0
M  END
>  <minimizedAffinity>
-7.276299

$$$$
