
 OpenBabel09132204463D

 33 37  0  0  1  0  0  0  0  0999 V2000
    9.6350    0.5360    1.8820 O   0  0  0  0  0  0  0  0  0  0  0  0
    9.8350    0.2960    3.0780 C   0  0  0  0  0  0  0  0  0  0  0  0
    9.7990   -1.1360    3.5080 C   0  0  0  0  0  0  0  0  0  0  0  0
   10.1130   -1.4320    4.7800 C   0  0  0  0  0  0  0  0  0  0  0  0
   10.5670   -0.3980    5.7270 C   0  0  0  0  0  0  0  0  0  0  0  0
   11.0940   -0.7370    6.9890 C   0  0  0  0  0  3  0  0  0  0  0  0
   11.4880    0.2460    7.8920 C   0  0  0  0  0  3  0  0  0  0  0  0
   11.3760    1.5820    7.5420 C   0  0  0  0  0  3  0  0  0  0  0  0
   10.8910    1.9340    6.2800 C   0  0  0  0  0  3  0  0  0  0  0  0
   10.4920    0.9580    5.3520 C   0  0  0  0  0  0  0  0  0  0  0  0
   10.0530    1.2860    4.0290 N   0  0  0  0  0  0  0  0  0  0  0  0
    9.3900   -2.1610    2.4740 C   0  0  1  0  0  3  0  0  0  0  0  0
   10.0920   -2.3150    1.3790 N   0  0  0  0  0  0  0  0  0  0  0  0
    9.7980   -3.3490    0.1910 S   0  0  0  0  0  0  0  0  0  0  0  0
    9.3980   -2.6170   -0.9960 O   0  0  0  0  0  0  0  0  0  0  0  0
   10.8910   -4.2990    0.1070 O   0  0  0  0  0  0  0  0  0  0  0  0
    8.3860   -4.2880    0.6690 C   0  0  0  0  0  0  0  0  0  0  0  0
    7.9250   -5.3120   -0.1670 C   0  0  0  0  0  3  0  0  0  0  0  0
    6.8110   -6.0530    0.2180 C   0  0  0  0  0  3  0  0  0  0  0  0
    6.1740   -5.7650    1.4250 C   0  0  0  0  0  3  0  0  0  0  0  0
    6.6500   -4.7370    2.2480 C   0  0  0  0  0  3  0  0  0  0  0  0
    7.7680   -3.9860    1.8750 C   0  0  0  0  0  0  0  0  0  0  0  0
    8.2540   -2.9740    2.6910 N   0  0  0  0  0  0  0  0  0  0  0  0
   10.9120   -1.7280    1.2630 H   0  0  0  0  0  0  0  0  0  0  0  0
    7.7690   -2.7930    3.5720 H   0  0  0  0  0  0  0  0  0  0  0  0
    9.9880   -2.7290    5.2600 O   0  0  0  0  0  0  0  0  0  0  0  0
    9.7330   -2.6800    6.2020 H   0  0  0  0  0  0  0  0  0  0  0  0
    9.8770    2.6790    3.5970 C   0  0  0  0  0  2  0  0  0  0  0  0
   11.1310    3.4080    3.0570 C   0  0  2  0  0  3  0  0  0  0  0  0
   11.3930    4.7860    3.6320 C   0  0  0  0  0  2  0  0  0  0  0  0
   10.6790    5.7310    2.6800 C   0  0  0  0  0  2  0  0  0  0  0  0
   10.4030    5.0000    1.4770 O   0  0  0  0  0  0  0  0  0  0  0  0
   11.0710    3.7340    1.5740 C   0  0  0  0  0  2  0  0  0  0  0  0
  1  2  2  0  0  0  0
  2  3  1  0  0  0  0
  2 11  1  0  0  0  0
  3  4  2  0  0  0  0
  4 26  1  0  0  0  0
  4  5  1  0  0  0  0
  5  6  1  0  0  0  0
  6  7  2  0  0  0  0
  8  7  1  0  0  0  0
  9  8  2  0  0  0  0
 10  5  2  0  0  0  0
 10  9  1  0  0  0  0
 11 10  1  0  0  0  0
 12 23  1  0  0  0  0
 12  3  1  1  0  0  0
 13 12  1  0  0  0  0
 14 17  1  0  0  0  0
 14 13  1  0  0  0  0
 15 14  2  0  0  0  0
 16 14  2  0  0  0  0
 17 22  1  0  0  0  0
 18 19  1  0  0  0  0
 18 17  2  0  0  0  0
 19 20  2  0  0  0  0
 20 21  1  0  0  0  0
 22 21  2  0  0  0  0
 22 23  1  0  0  0  0
 23 25  1  0  0  0  0
 24 13  1  0  0  0  0
 26 27  1  0  0  0  0
 28 11  1  0  0  0  0
 29 28  1  1  0  0  0
 29 30  1  0  0  0  0
 31 30  1  0  0  0  0
 32 33  1  0  0  0  0
 32 31  1  0  0  0  0
 33 29  1  0  0  0  0
M  END
>  <minimizedAffinity>
-6.54391289

$$$$
