
 OpenBabel09132204463D

 39 43  0  0  1  0  0  0  0  0999 V2000
    3.8240   -7.0030    4.9280 N   0  0  0  0  0  0  0  0  0  0  0  0
    3.8040   -5.9320    5.8020 C   0  0  0  0  0  0  0  0  0  0  0  0
    4.3280   -4.8290    5.1250 C   0  0  0  0  0  0  0  0  0  0  0  0
    4.6670   -5.2690    3.8020 C   0  0  0  0  0  0  0  0  0  0  0  0
    5.1230   -4.6230    2.6320 C   0  0  0  0  0  3  0  0  0  0  0  0
    5.1230   -5.3250    1.4220 C   0  0  0  0  0  3  0  0  0  0  0  0
    4.8120   -6.6830    1.3970 C   0  0  0  0  0  0  0  0  0  0  0  0
    4.7020   -7.4030    2.5990 C   0  0  0  0  0  3  0  0  0  0  0  0
    4.4480   -6.6460    3.7510 C   0  0  0  0  0  0  0  0  0  0  0  0
    3.2840   -6.0140    7.1690 C   0  0  0  0  0  0  0  0  0  0  0  0
    2.0360   -5.4610    7.4870 C   0  0  0  0  0  3  0  0  0  0  0  0
    1.5310   -5.5610    8.7850 C   0  0  0  0  0  3  0  0  0  0  0  0
    2.2730   -6.2110    9.7690 C   0  0  0  0  0  0  0  0  0  0  0  0
    1.6380   -6.3460   11.3610 Cl  0  0  0  0  0  0  0  0  0  0  0  0
    3.5200   -6.7530    9.4700 C   0  0  0  0  0  3  0  0  0  0  0  0
    4.0290   -6.6490    8.1720 C   0  0  0  0  0  3  0  0  0  0  0  0
    4.4710   -3.4250    5.6840 C   0  0  0  0  0  3  0  0  0  0  0  0
    3.1200   -2.7750    6.0210 C   0  0  0  0  0  2  0  0  0  0  0  0
    3.3020   -1.3600    6.5690 C   0  0  0  0  0  2  0  0  0  0  0  0
    4.2500   -1.3340    7.7640 C   0  0  0  0  0  2  0  0  0  0  0  0
    5.5970   -1.9660    7.4250 C   0  0  0  0  0  2  0  0  0  0  0  0
    5.4330   -3.3830    6.8840 C   0  0  0  0  0  2  0  0  0  0  0  0
    4.2230   -7.2930    0.1500 C   0  0  0  0  0  0  0  0  0  0  0  0
    5.1010   -7.4850   -0.7710 O   0  0  0  0  0  0  0  0  0  0  0  0
    3.0490   -7.7360    0.1780 O   0  0  0  0  0  1  0  0  0  0  0  0
    3.1930   -8.2990    5.1680 C   0  0  0  0  0  2  0  0  0  0  0  0
    1.9790   -8.6280    4.3220 C   0  0  0  0  0  0  0  0  0  0  0  0
    2.1400   -8.9650    3.1420 O   0  0  0  0  0  0  0  0  0  0  0  0
   -1.4980   -7.7140    5.7460 C   0  0  2  0  0  3  0  0  0  0  0  0
   -1.8530   -8.6440    4.5610 C   0  0  0  0  0  2  0  0  0  0  0  0
   -0.5530   -8.9560    3.9440 N   0  0  0  0  0  4  0  0  0  0  0  0
    0.5570   -8.6820    4.8900 C   0  0  2  0  0  3  0  0  0  0  0  0
    0.0280   -7.4960    5.6810 C   0  0  0  0  0  2  0  0  0  0  0  0
   -0.5210   -9.9380    3.5110 H   0  0  0  0  0  0  0  0  0  0  0  0
   -0.4810   -8.4290    3.0650 H   0  0  0  0  0  0  0  0  0  0  0  0
   -0.9300   -7.9100    8.2010 C   0  0  0  0  0  1  0  0  0  0  0  0
   -1.9520   -8.2220    7.1200 N   0  0  0  0  0  4  0  0  0  0  0  0
   -3.3390   -7.8430    7.5880 C   0  0  0  0  0  1  0  0  0  0  0  0
   -1.9530   -9.2530    7.0710 H   0  0  0  0  0  0  0  0  0  0  0  0
  1 26  1  0  0  0  0
  1  2  1  0  0  0  0
  2 10  1  0  0  0  0
  3 17  1  0  0  0  0
  3  2  2  0  0  0  0
  4  3  1  0  0  0  0
  5  4  2  0  0  0  0
  6  5  1  0  0  0  0
  7  6  2  0  0  0  0
  7  8  1  0  0  0  0
  8  9  2  0  0  0  0
  9  4  1  0  0  0  0
  9  1  1  0  0  0  0
 10 11  2  0  0  0  0
 10 16  1  0  0  0  0
 11 12  1  0  0  0  0
 12 13  2  0  0  0  0
 13 14  1  0  0  0  0
 15 13  1  0  0  0  0
 16 15  2  0  0  0  0
 17 18  1  0  0  0  0
 17 22  1  0  0  0  0
 18 19  1  0  0  0  0
 19 20  1  0  0  0  0
 21 20  1  0  0  0  0
 22 21  1  0  0  0  0
 23 25  1  0  0  0  0
 23  7  1  0  0  0  0
 24 23  2  0  0  0  0
 27 26  1  0  0  0  0
 28 27  2  0  0  0  0
 29 37  1  1  0  0  0
 30 29  1  0  0  0  0
 31 30  1  0  0  0  0
 31 32  1  0  0  0  0
 32 27  1  6  0  0  0
 32 33  1  0  0  0  0
 33 29  1  0  0  0  0
 34 31  1  0  0  0  0
 35 31  1  0  0  0  0
 37 38  1  0  0  0  0
 37 36  1  0  0  0  0
 39 37  1  0  0  0  0
M  END
>  <minimizedAffinity>
-6.29934597

$$$$
