
 OpenBabel09122222483D

 39 43  0  0  1  0  0  0  0  0999 V2000
    3.7610   -6.9000    4.9860 N   0  0  0  0  0  0  0  0  0  0  0  0
    3.6370   -5.8000    5.8160 C   0  0  0  0  0  0  0  0  0  0  0  0
    4.0650   -4.6840    5.0950 C   0  0  0  0  0  0  0  0  0  0  0  0
    4.4520   -5.1450    3.7920 C   0  0  0  0  0  0  0  0  0  0  0  0
    4.8560   -4.5090    2.5980 C   0  0  0  0  0  3  0  0  0  0  0  0
    4.9300   -5.2570    1.4190 C   0  0  0  0  0  3  0  0  0  0  0  0
    4.7430   -6.6370    1.4500 C   0  0  0  0  0  0  0  0  0  0  0  0
    4.6900   -7.3140    2.6800 C   0  0  0  0  0  3  0  0  0  0  0  0
    4.3590   -6.5370    3.7990 C   0  0  0  0  0  0  0  0  0  0  0  0
    3.1170   -5.8730    7.1830 C   0  0  0  0  0  0  0  0  0  0  0  0
    3.9530   -6.2610    8.2390 C   0  0  0  0  0  3  0  0  0  0  0  0
    3.4630   -6.3070    9.5450 C   0  0  0  0  0  3  0  0  0  0  0  0
    2.1340   -5.9680    9.8000 C   0  0  0  0  0  0  0  0  0  0  0  0
    1.5410   -6.0100   11.4120 Cl  0  0  0  0  0  0  0  0  0  0  0  0
    1.2900   -5.5940    8.7570 C   0  0  0  0  0  3  0  0  0  0  0  0
    1.7790   -5.5520    7.4490 C   0  0  0  0  0  3  0  0  0  0  0  0
    4.0760   -3.2500    5.5950 C   0  0  0  0  0  3  0  0  0  0  0  0
    2.6660   -2.7000    5.8660 C   0  0  0  0  0  2  0  0  0  0  0  0
    2.7150   -1.2540    6.3550 C   0  0  0  0  0  2  0  0  0  0  0  0
    3.6210   -1.1000    7.5740 C   0  0  0  0  0  2  0  0  0  0  0  0
    5.0240   -1.6320    7.3010 C   0  0  0  0  0  2  0  0  0  0  0  0
    4.9930   -3.0790    6.8180 C   0  0  0  0  0  2  0  0  0  0  0  0
    4.2210   -7.3490    0.2260 C   0  0  0  0  0  0  0  0  0  0  0  0
    3.2380   -8.1370    0.4910 O   0  0  0  0  0  1  0  0  0  0  0  0
    4.6110   -6.9850   -0.9100 O   0  0  0  0  0  0  0  0  0  0  0  0
    3.2480   -8.2370    5.2780 C   0  0  0  0  0  2  0  0  0  0  0  0
    1.7960   -8.4960    4.9290 C   0  0  0  0  0  0  0  0  0  0  0  0
    1.5170   -8.9650    3.8180 O   0  0  0  0  0  0  0  0  0  0  0  0
   -1.5310   -8.8050    6.8760 C   0  0  2  0  0  3  0  0  0  0  0  0
   -0.4700   -8.9660    7.9930 C   0  0  0  0  0  2  0  0  0  0  0  0
    0.8160   -8.9280    7.2780 N   0  0  0  0  0  4  0  0  0  0  0  0
    0.6530   -8.3190    5.9340 C   0  0  2  0  0  3  0  0  0  0  0  0
   -0.7520   -8.7530    5.5460 C   0  0  0  0  0  2  0  0  0  0  0  0
    1.6050   -8.4900    7.8600 H   0  0  0  0  0  0  0  0  0  0  0  0
    1.1950   -9.8820    7.2510 H   0  0  0  0  0  0  0  0  0  0  0  0
   -3.3350   -7.3850    5.8190 C   0  0  0  0  0  1  0  0  0  0  0  0
   -2.4660   -7.6010    7.0470 N   0  0  0  0  0  4  0  0  0  0  0  0
   -3.3090   -7.5360    8.3010 C   0  0  0  0  0  1  0  0  0  0  0  0
   -1.8670   -6.7610    7.0770 H   0  0  0  0  0  0  0  0  0  0  0  0
  1 26  1  0  0  0  0
  1  2  1  0  0  0  0
  2 10  1  0  0  0  0
  3 17  1  0  0  0  0
  3  2  2  0  0  0  0
  4  9  1  0  0  0  0
  4  3  1  0  0  0  0
  5  4  2  0  0  0  0
  6  7  2  0  0  0  0
  6  5  1  0  0  0  0
  7  8  1  0  0  0  0
  8  9  2  0  0  0  0
  9  1  1  0  0  0  0
 10 16  2  0  0  0  0
 10 11  1  0  0  0  0
 11 12  2  0  0  0  0
 12 13  1  0  0  0  0
 13 14  1  0  0  0  0
 15 13  2  0  0  0  0
 16 15  1  0  0  0  0
 17 18  1  0  0  0  0
 17 22  1  0  0  0  0
 18 19  1  0  0  0  0
 19 20  1  0  0  0  0
 21 20  1  0  0  0  0
 22 21  1  0  0  0  0
 23 24  1  0  0  0  0
 23  7  1  0  0  0  0
 25 23  2  0  0  0  0
 27 26  1  0  0  0  0
 28 27  2  0  0  0  0
 29 37  1  1  0  0  0
 29 30  1  0  0  0  0
 31 34  1  0  0  0  0
 31 30  1  0  0  0  0
 32 27  1  6  0  0  0
 32 31  1  0  0  0  0
 33 32  1  0  0  0  0
 33 29  1  0  0  0  0
 35 31  1  0  0  0  0
 36 37  1  0  0  0  0
 37 39  1  0  0  0  0
 37 38  1  0  0  0  0
M  END
>  <minimizedAffinity>
-6.62492895

$$$$

 OpenBabel09122222483D

 39 43  0  0  1  0  0  0  0  0999 V2000
    3.8240   -7.0030    4.9280 N   0  0  0  0  0  0  0  0  0  0  0  0
    3.8040   -5.9320    5.8020 C   0  0  0  0  0  0  0  0  0  0  0  0
    4.3280   -4.8290    5.1250 C   0  0  0  0  0  0  0  0  0  0  0  0
    4.6670   -5.2690    3.8020 C   0  0  0  0  0  0  0  0  0  0  0  0
    5.1230   -4.6230    2.6320 C   0  0  0  0  0  3  0  0  0  0  0  0
    5.1230   -5.3250    1.4220 C   0  0  0  0  0  3  0  0  0  0  0  0
    4.8120   -6.6830    1.3970 C   0  0  0  0  0  0  0  0  0  0  0  0
    4.7020   -7.4030    2.5990 C   0  0  0  0  0  3  0  0  0  0  0  0
    4.4480   -6.6460    3.7510 C   0  0  0  0  0  0  0  0  0  0  0  0
    3.2840   -6.0140    7.1690 C   0  0  0  0  0  0  0  0  0  0  0  0
    2.0360   -5.4610    7.4870 C   0  0  0  0  0  3  0  0  0  0  0  0
    1.5310   -5.5610    8.7850 C   0  0  0  0  0  3  0  0  0  0  0  0
    2.2730   -6.2110    9.7690 C   0  0  0  0  0  0  0  0  0  0  0  0
    1.6380   -6.3460   11.3610 Cl  0  0  0  0  0  0  0  0  0  0  0  0
    3.5200   -6.7530    9.4700 C   0  0  0  0  0  3  0  0  0  0  0  0
    4.0290   -6.6490    8.1720 C   0  0  0  0  0  3  0  0  0  0  0  0
    4.4710   -3.4250    5.6840 C   0  0  0  0  0  3  0  0  0  0  0  0
    3.1200   -2.7750    6.0210 C   0  0  0  0  0  2  0  0  0  0  0  0
    3.3020   -1.3600    6.5690 C   0  0  0  0  0  2  0  0  0  0  0  0
    4.2500   -1.3340    7.7640 C   0  0  0  0  0  2  0  0  0  0  0  0
    5.5970   -1.9660    7.4250 C   0  0  0  0  0  2  0  0  0  0  0  0
    5.4330   -3.3830    6.8840 C   0  0  0  0  0  2  0  0  0  0  0  0
    4.2230   -7.2930    0.1500 C   0  0  0  0  0  0  0  0  0  0  0  0
    5.1010   -7.4850   -0.7710 O   0  0  0  0  0  0  0  0  0  0  0  0
    3.0490   -7.7360    0.1780 O   0  0  0  0  0  1  0  0  0  0  0  0
    3.1930   -8.2990    5.1680 C   0  0  0  0  0  2  0  0  0  0  0  0
    1.9790   -8.6280    4.3220 C   0  0  0  0  0  0  0  0  0  0  0  0
    2.1400   -8.9650    3.1420 O   0  0  0  0  0  0  0  0  0  0  0  0
   -1.4980   -7.7140    5.7460 C   0  0  2  0  0  3  0  0  0  0  0  0
   -1.8530   -8.6440    4.5610 C   0  0  0  0  0  2  0  0  0  0  0  0
   -0.5530   -8.9560    3.9440 N   0  0  0  0  0  4  0  0  0  0  0  0
    0.5570   -8.6820    4.8900 C   0  0  2  0  0  3  0  0  0  0  0  0
    0.0280   -7.4960    5.6810 C   0  0  0  0  0  2  0  0  0  0  0  0
   -0.5210   -9.9380    3.5110 H   0  0  0  0  0  0  0  0  0  0  0  0
   -0.4810   -8.4290    3.0650 H   0  0  0  0  0  0  0  0  0  0  0  0
   -0.9300   -7.9100    8.2010 C   0  0  0  0  0  1  0  0  0  0  0  0
   -1.9520   -8.2220    7.1200 N   0  0  0  0  0  4  0  0  0  0  0  0
   -3.3390   -7.8430    7.5880 C   0  0  0  0  0  1  0  0  0  0  0  0
   -1.9530   -9.2530    7.0710 H   0  0  0  0  0  0  0  0  0  0  0  0
  1 26  1  0  0  0  0
  1  2  1  0  0  0  0
  2 10  1  0  0  0  0
  3 17  1  0  0  0  0
  3  2  2  0  0  0  0
  4  3  1  0  0  0  0
  5  4  2  0  0  0  0
  6  5  1  0  0  0  0
  7  6  2  0  0  0  0
  7  8  1  0  0  0  0
  8  9  2  0  0  0  0
  9  4  1  0  0  0  0
  9  1  1  0  0  0  0
 10 11  2  0  0  0  0
 10 16  1  0  0  0  0
 11 12  1  0  0  0  0
 12 13  2  0  0  0  0
 13 14  1  0  0  0  0
 15 13  1  0  0  0  0
 16 15  2  0  0  0  0
 17 18  1  0  0  0  0
 17 22  1  0  0  0  0
 18 19  1  0  0  0  0
 19 20  1  0  0  0  0
 21 20  1  0  0  0  0
 22 21  1  0  0  0  0
 23 25  1  0  0  0  0
 23  7  1  0  0  0  0
 24 23  2  0  0  0  0
 27 26  1  0  0  0  0
 28 27  2  0  0  0  0
 29 37  1  1  0  0  0
 30 29  1  0  0  0  0
 31 30  1  0  0  0  0
 31 32  1  0  0  0  0
 32 27  1  6  0  0  0
 32 33  1  0  0  0  0
 33 29  1  0  0  0  0
 34 31  1  0  0  0  0
 35 31  1  0  0  0  0
 37 38  1  0  0  0  0
 37 36  1  0  0  0  0
 39 37  1  0  0  0  0
M  END
>  <minimizedAffinity>
-6.29934597

$$$$

 OpenBabel09122222483D

 39 43  0  0  1  0  0  0  0  0999 V2000
    3.8750   -4.0610    7.5310 N   0  0  0  0  0  0  0  0  0  0  0  0
    3.1800   -5.1990    7.8960 C   0  0  0  0  0  0  0  0  0  0  0  0
    3.1410   -5.2350    9.2910 C   0  0  0  0  0  0  0  0  0  0  0  0
    3.8380   -4.0720    9.7630 C   0  0  0  0  0  0  0  0  0  0  0  0
    4.0460   -3.4920   11.0330 C   0  0  0  0  0  3  0  0  0  0  0  0
    4.5790   -2.2010   11.1140 C   0  0  0  0  0  3  0  0  0  0  0  0
    5.0280   -1.5530    9.9640 C   0  0  0  0  0  0  0  0  0  0  0  0
    5.1450   -2.2610    8.7570 C   0  0  0  0  0  3  0  0  0  0  0  0
    4.3780   -3.4290    8.6480 C   0  0  0  0  0  0  0  0  0  0  0  0
    2.5970   -6.1350    6.9320 C   0  0  0  0  0  0  0  0  0  0  0  0
    1.2910   -5.9450    6.4620 C   0  0  0  0  0  3  0  0  0  0  0  0
    0.7440   -6.8230    5.5250 C   0  0  0  0  0  3  0  0  0  0  0  0
    1.5000   -7.8970    5.0570 C   0  0  0  0  0  0  0  0  0  0  0  0
    0.8290   -8.9660    3.8910 Cl  0  0  0  0  0  0  0  0  0  0  0  0
    2.7950   -8.1050    5.5280 C   0  0  0  0  0  3  0  0  0  0  0  0
    3.3410   -7.2280    6.4680 C   0  0  0  0  0  3  0  0  0  0  0  0
    2.4530   -6.2900   10.1380 C   0  0  0  0  0  3  0  0  0  0  0  0
    0.9320   -6.3320    9.9220 C   0  0  0  0  0  2  0  0  0  0  0  0
    0.2720   -7.3960   10.7980 C   0  0  0  0  0  2  0  0  0  0  0  0
    0.9050   -8.7700   10.5910 C   0  0  0  0  0  2  0  0  0  0  0  0
    2.4130   -8.7320   10.8200 C   0  0  0  0  0  2  0  0  0  0  0  0
    3.0880   -7.6780    9.9460 C   0  0  0  0  0  2  0  0  0  0  0  0
    5.0210   -0.0460    9.9050 C   0  0  0  0  0  0  0  0  0  0  0  0
    5.9940    0.4280    9.2080 O   0  0  0  0  0  0  0  0  0  0  0  0
    4.0190    0.5820   10.3260 O   0  0  0  0  0  1  0  0  0  0  0  0
    3.9860   -3.5420    6.1690 C   0  0  0  0  0  2  0  0  0  0  0  0
    5.2480   -3.8980    5.4100 C   0  0  0  0  0  0  0  0  0  0  0  0
    6.3410   -3.5040    5.8380 O   0  0  0  0  0  0  0  0  0  0  0  0
    4.3260   -5.7970    2.1690 C   0  0  2  0  0  3  0  0  0  0  0  0
    5.7290   -5.2320    1.8420 C   0  0  0  0  0  2  0  0  0  0  0  0
    6.0860   -4.4380    3.0280 N   0  0  0  0  0  4  0  0  0  0  0  0
    5.2550   -4.8300    4.1940 C   0  0  2  0  0  3  0  0  0  0  0  0
    3.9340   -5.2080    3.5410 C   0  0  0  0  0  2  0  0  0  0  0  0
    7.1410   -4.4360    3.2290 H   0  0  0  0  0  0  0  0  0  0  0  0
    6.0040   -3.4430    2.7840 H   0  0  0  0  0  0  0  0  0  0  0  0
    3.9260   -7.8510    0.7520 C   0  0  0  0  0  1  0  0  0  0  0  0
    4.2270   -7.3270    2.1470 N   0  0  0  0  0  4  0  0  0  0  0  0
    5.3600   -8.1150    2.7670 C   0  0  0  0  0  1  0  0  0  0  0  0
    3.3890   -7.5790    2.6920 H   0  0  0  0  0  0  0  0  0  0  0  0
  1  2  1  0  0  0  0
  1  9  1  0  0  0  0
  2  3  2  0  0  0  0
  3  4  1  0  0  0  0
  3 17  1  0  0  0  0
  4  5  1  0  0  0  0
  5  6  2  0  0  0  0
  7  6  1  0  0  0  0
  8  7  2  0  0  0  0
  9  8  1  0  0  0  0
  9  4  2  0  0  0  0
 10  2  1  0  0  0  0
 11 10  2  0  0  0  0
 12 11  1  0  0  0  0
 13 12  2  0  0  0  0
 13 15  1  0  0  0  0
 14 13  1  0  0  0  0
 15 16  2  0  0  0  0
 16 10  1  0  0  0  0
 18 17  1  0  0  0  0
 18 19  1  0  0  0  0
 20 19  1  0  0  0  0
 20 21  1  0  0  0  0
 22 17  1  0  0  0  0
 22 21  1  0  0  0  0
 23  7  1  0  0  0  0
 23 25  1  0  0  0  0
 24 23  2  0  0  0  0
 26  1  1  0  0  0  0
 27 28  2  0  0  0  0
 27 26  1  0  0  0  0
 29 37  1  1  0  0  0
 29 33  1  0  0  0  0
 30 29  1  0  0  0  0
 30 31  1  0  0  0  0
 31 34  1  0  0  0  0
 31 32  1  0  0  0  0
 32 27  1  1  0  0  0
 33 32  1  0  0  0  0
 35 31  1  0  0  0  0
 36 37  1  0  0  0  0
 37 39  1  0  0  0  0
 37 38  1  0  0  0  0
M  END
>  <minimizedAffinity>
-5.50782299

$$$$

 OpenBabel09122222483D

 39 43  0  0  1  0  0  0  0  0999 V2000
    3.7790   -5.8940    7.2190 N   0  0  0  0  0  0  0  0  0  0  0  0
    2.9950   -6.6230    6.3430 C   0  0  0  0  0  0  0  0  0  0  0  0
    1.7650   -6.8400    6.9660 C   0  0  0  0  0  0  0  0  0  0  0  0
    1.8290   -6.2130    8.2560 C   0  0  0  0  0  0  0  0  0  0  0  0
    0.8960   -5.9870    9.2930 C   0  0  0  0  0  3  0  0  0  0  0  0
    1.2330   -5.1160   10.3340 C   0  0  0  0  0  3  0  0  0  0  0  0
    2.5190   -4.5880   10.4200 C   0  0  0  0  0  0  0  0  0  0  0  0
    3.5420   -5.0850    9.5950 C   0  0  0  0  0  3  0  0  0  0  0  0
    3.1290   -5.7370    8.4240 C   0  0  0  0  0  0  0  0  0  0  0  0
    3.4380   -7.0310    5.0090 C   0  0  0  0  0  0  0  0  0  0  0  0
    3.6450   -8.3860    4.7140 C   0  0  0  0  0  3  0  0  0  0  0  0
    4.0440   -8.7770    3.4350 C   0  0  0  0  0  3  0  0  0  0  0  0
    4.2420   -7.8140    2.4470 C   0  0  0  0  0  0  0  0  0  0  0  0
    4.7170   -8.3020    0.8690 Cl  0  0  0  0  0  0  0  0  0  0  0  0
    4.0540   -6.4630    2.7300 C   0  0  0  0  0  3  0  0  0  0  0  0
    3.6580   -6.0720    4.0110 C   0  0  0  0  0  3  0  0  0  0  0  0
    0.5770   -7.5690    6.3650 C   0  0  0  0  0  3  0  0  0  0  0  0
   -0.3190   -8.2290    7.4260 C   0  0  0  0  0  2  0  0  0  0  0  0
   -1.4960   -8.9630    6.7840 C   0  0  0  0  0  2  0  0  0  0  0  0
   -2.2980   -8.0480    5.8630 C   0  0  0  0  0  2  0  0  0  0  0  0
   -1.4120   -7.4040    4.8010 C   0  0  0  0  0  2  0  0  0  0  0  0
   -0.2350   -6.6610    5.4260 C   0  0  0  0  0  2  0  0  0  0  0  0
    2.7380   -3.2580   11.0960 C   0  0  0  0  0  0  0  0  0  0  0  0
    3.9830   -3.0040   11.3020 O   0  0  0  0  0  1  0  0  0  0  0  0
    1.7770   -2.4580   11.2050 O   0  0  0  0  0  0  0  0  0  0  0  0
    5.0700   -5.2920    6.8920 C   0  0  0  0  0  2  0  0  0  0  0  0
    5.0610   -3.8170    6.5470 C   0  0  0  0  0  0  0  0  0  0  0  0
    5.2880   -3.4690    5.3810 O   0  0  0  0  0  0  0  0  0  0  0  0
    4.7530   -0.5060    8.5210 C   0  0  2  0  0  3  0  0  0  0  0  0
    3.2810   -0.8220    8.1620 C   0  0  0  0  0  2  0  0  0  0  0  0
    3.3640   -2.0430    7.3430 N   0  0  0  0  0  4  0  0  0  0  0  0
    4.6630   -2.7290    7.5500 C   0  0  2  0  0  3  0  0  0  0  0  0
    5.6110   -1.5660    7.8000 C   0  0  0  0  0  2  0  0  0  0  0  0
    2.5100   -2.6840    7.4610 H   0  0  0  0  0  0  0  0  0  0  0  0
    3.1890   -1.7830    6.3640 H   0  0  0  0  0  0  0  0  0  0  0  0
    6.5140   -0.1500   10.3000 C   0  0  0  0  0  1  0  0  0  0  0  0
    5.0490   -0.4480   10.0250 N   0  0  0  0  0  4  0  0  0  0  0  0
    4.1680    0.4330   10.8820 C   0  0  0  0  0  1  0  0  0  0  0  0
    4.9180   -1.4030   10.3910 H   0  0  0  0  0  0  0  0  0  0  0  0
  1  9  1  0  0  0  0
  2  3  2  0  0  0  0
  2  1  1  0  0  0  0
  3  4  1  0  0  0  0
  4  9  2  0  0  0  0
  4  5  1  0  0  0  0
  5  6  2  0  0  0  0
  6  7  1  0  0  0  0
  7 23  1  0  0  0  0
  8  7  2  0  0  0  0
  9  8  1  0  0  0  0
 10  2  1  0  0  0  0
 11 10  1  0  0  0  0
 12 11  2  0  0  0  0
 13 15  2  0  0  0  0
 13 12  1  0  0  0  0
 14 13  1  0  0  0  0
 15 16  1  0  0  0  0
 16 10  2  0  0  0  0
 17  3  1  0  0  0  0
 17 18  1  0  0  0  0
 19 18  1  0  0  0  0
 20 19  1  0  0  0  0
 21 22  1  0  0  0  0
 21 20  1  0  0  0  0
 22 17  1  0  0  0  0
 23 25  2  0  0  0  0
 23 24  1  0  0  0  0
 26  1  1  0  0  0  0
 27 26  1  0  0  0  0
 28 27  2  0  0  0  0
 29 37  1  1  0  0  0
 30 29  1  0  0  0  0
 31 34  1  0  0  0  0
 31 32  1  0  0  0  0
 31 30  1  0  0  0  0
 32 27  1  6  0  0  0
 32 33  1  0  0  0  0
 33 29  1  0  0  0  0
 35 31  1  0  0  0  0
 37 36  1  0  0  0  0
 37 39  1  0  0  0  0
 37 38  1  0  0  0  0
M  END
>  <minimizedAffinity>
-5.35476828

$$$$

 OpenBabel09122222483D

 39 43  0  0  1  0  0  0  0  0999 V2000
    4.3580   -5.3780    4.8490 N   0  0  0  0  0  0  0  0  0  0  0  0
    3.5490   -5.9870    5.7920 C   0  0  0  0  0  0  0  0  0  0  0  0
    2.9410   -7.0820    5.1770 C   0  0  0  0  0  0  0  0  0  0  0  0
    3.4110   -7.1190    3.8210 C   0  0  0  0  0  0  0  0  0  0  0  0
    3.2590   -8.0230    2.7470 C   0  0  0  0  0  3  0  0  0  0  0  0
    4.0650   -7.8760    1.6130 C   0  0  0  0  0  3  0  0  0  0  0  0
    4.9060   -6.7720    1.4880 C   0  0  0  0  0  0  0  0  0  0  0  0
    4.7990   -5.6980    2.3880 C   0  0  0  0  0  3  0  0  0  0  0  0
    4.1970   -5.9840    3.6210 C   0  0  0  0  0  0  0  0  0  0  0  0
    3.4290   -5.5200    7.1750 C   0  0  0  0  0  0  0  0  0  0  0  0
    4.4190   -5.8330    8.1170 C   0  0  0  0  0  3  0  0  0  0  0  0
    4.3160   -5.3680    9.4290 C   0  0  0  0  0  3  0  0  0  0  0  0
    3.2210   -4.5920    9.8050 C   0  0  0  0  0  0  0  0  0  0  0  0
    3.1070   -4.0080   11.4170 Cl  0  0  0  0  0  0  0  0  0  0  0  0
    2.2230   -4.2850    8.8820 C   0  0  0  0  0  3  0  0  0  0  0  0
    2.3240   -4.7540    7.5700 C   0  0  0  0  0  3  0  0  0  0  0  0
    1.9920   -8.0640    5.8400 C   0  0  0  0  0  3  0  0  0  0  0  0
    1.9920   -7.9540    7.3730 C   0  0  0  0  0  2  0  0  0  0  0  0
    1.0360   -8.9640    8.0050 C   0  0  0  0  0  2  0  0  0  0  0  0
   -0.3740   -8.8420    7.4340 C   0  0  0  0  0  2  0  0  0  0  0  0
   -0.3770   -8.9650    5.9140 C   0  0  0  0  0  2  0  0  0  0  0  0
    0.5680   -7.9580    5.2660 C   0  0  0  0  0  2  0  0  0  0  0  0
    6.1610   -6.8780    0.6570 C   0  0  0  0  0  0  0  0  0  0  0  0
    6.6110   -8.0820    0.5880 O   0  0  0  0  0  1  0  0  0  0  0  0
    6.5260   -5.8950   -0.0330 O   0  0  0  0  0  0  0  0  0  0  0  0
    5.3170   -4.3110    5.1240 C   0  0  0  0  0  2  0  0  0  0  0  0
    4.7400   -2.9750    5.5460 C   0  0  0  0  0  0  0  0  0  0  0  0
    3.7430   -2.5350    4.9580 O   0  0  0  0  0  0  0  0  0  0  0  0
    5.1010   -1.2410    8.9840 C   0  0  2  0  0  3  0  0  0  0  0  0
    6.3720   -2.1230    8.9150 C   0  0  0  0  0  2  0  0  0  0  0  0
    6.2340   -2.8580    7.6470 N   0  0  0  0  0  4  0  0  0  0  0  0
    5.2580   -2.1870    6.7530 C   0  0  2  0  0  3  0  0  0  0  0  0
    4.2610   -1.5980    7.7400 C   0  0  0  0  0  2  0  0  0  0  0  0
    7.1780   -3.0670    7.1810 H   0  0  0  0  0  0  0  0  0  0  0  0
    5.9860   -3.8300    7.8670 H   0  0  0  0  0  0  0  0  0  0  0  0
    5.2300    0.7630   10.5190 C   0  0  0  0  0  1  0  0  0  0  0  0
    5.3690    0.2650    9.0900 N   0  0  0  0  0  4  0  0  0  0  0  0
    6.6420    0.7990    8.4720 C   0  0  0  0  0  1  0  0  0  0  0  0
    4.6030    0.7390    8.5880 H   0  0  0  0  0  0  0  0  0  0  0  0
  1 26  1  0  0  0  0
  1  2  1  0  0  0  0
  2 10  1  0  0  0  0
  3  2  2  0  0  0  0
  3 17  1  0  0  0  0
  4  3  1  0  0  0  0
  5  4  2  0  0  0  0
  6  5  1  0  0  0  0
  7  6  2  0  0  0  0
  7  8  1  0  0  0  0
  8  9  2  0  0  0  0
  9  4  1  0  0  0  0
  9  1  1  0  0  0  0
 10 16  2  0  0  0  0
 10 11  1  0  0  0  0
 11 12  2  0  0  0  0
 12 13  1  0  0  0  0
 13 14  1  0  0  0  0
 15 13  2  0  0  0  0
 16 15  1  0  0  0  0
 17 18  1  0  0  0  0
 18 19  1  0  0  0  0
 20 19  1  0  0  0  0
 21 20  1  0  0  0  0
 22 17  1  0  0  0  0
 22 21  1  0  0  0  0
 23  7  1  0  0  0  0
 24 23  1  0  0  0  0
 25 23  2  0  0  0  0
 26 27  1  0  0  0  0
 28 27  2  0  0  0  0
 29 37  1  6  0  0  0
 30 29  1  0  0  0  0
 31 35  1  0  0  0  0
 31 30  1  0  0  0  0
 32 27  1  6  0  0  0
 32 31  1  0  0  0  0
 32 33  1  0  0  0  0
 33 29  1  0  0  0  0
 34 31  1  0  0  0  0
 37 36  1  0  0  0  0
 38 37  1  0  0  0  0
 39 37  1  0  0  0  0
M  END
>  <minimizedAffinity>
-4.93280363

$$$$

 OpenBabel09122222483D

 39 43  0  0  1  0  0  0  0  0999 V2000
    3.8590   -5.7560    7.6410 N   0  0  0  0  0  0  0  0  0  0  0  0
    3.0070   -6.5080    6.8520 C   0  0  0  0  0  0  0  0  0  0  0  0
    1.7830   -6.5890    7.5190 C   0  0  0  0  0  0  0  0  0  0  0  0
    1.9210   -5.8540    8.7440 C   0  0  0  0  0  0  0  0  0  0  0  0
    1.0330   -5.4770    9.7760 C   0  0  0  0  0  3  0  0  0  0  0  0
    1.4510   -4.5390   10.7250 C   0  0  0  0  0  3  0  0  0  0  0  0
    2.7700   -4.0890   10.7350 C   0  0  0  0  0  0  0  0  0  0  0  0
    3.7370   -4.7230    9.9370 C   0  0  0  0  0  3  0  0  0  0  0  0
    3.2520   -5.4490    8.8400 C   0  0  0  0  0  0  0  0  0  0  0  0
    3.3880   -7.0630    5.5510 C   0  0  0  0  0  0  0  0  0  0  0  0
    3.5520   -6.2200    4.4430 C   0  0  0  0  0  3  0  0  0  0  0  0
    3.9390   -6.7460    3.2090 C   0  0  0  0  0  3  0  0  0  0  0  0
    4.1590   -8.1160    3.0780 C   0  0  0  0  0  0  0  0  0  0  0  0
    4.6510   -8.7560    1.5610 Cl  0  0  0  0  0  0  0  0  0  0  0  0
    3.9860   -8.9660    4.1680 C   0  0  0  0  0  3  0  0  0  0  0  0
    3.5950   -8.4400    5.4020 C   0  0  0  0  0  3  0  0  0  0  0  0
    0.5360   -7.2910    7.0120 C   0  0  0  0  0  3  0  0  0  0  0  0
   -0.5790   -7.3660    8.0680 C   0  0  0  0  0  2  0  0  0  0  0  0
   -1.8120   -8.0890    7.5270 C   0  0  0  0  0  2  0  0  0  0  0  0
   -2.3100   -7.4620    6.2280 C   0  0  0  0  0  2  0  0  0  0  0  0
   -1.2080   -7.4020    5.1750 C   0  0  0  0  0  2  0  0  0  0  0  0
    0.0280   -6.6760    5.6970 C   0  0  0  0  0  2  0  0  0  0  0  0
    3.0890   -2.7200   11.2830 C   0  0  0  0  0  0  0  0  0  0  0  0
    4.3550   -2.4950   11.3490 O   0  0  0  0  0  0  0  0  0  0  0  0
    2.1650   -1.8820   11.4190 O   0  0  0  0  0  1  0  0  0  0  0  0
    5.1750   -5.2700    7.2320 C   0  0  0  0  0  2  0  0  0  0  0  0
    5.1990   -4.0220    6.3740 C   0  0  0  0  0  0  0  0  0  0  0  0
    5.9540   -3.9780    5.3930 O   0  0  0  0  0  0  0  0  0  0  0  0
    2.1610   -1.8140    7.2970 C   0  0  2  0  0  3  0  0  0  0  0  0
    3.3310   -1.0920    8.0080 C   0  0  0  0  0  2  0  0  0  0  0  0
    4.4990   -1.9470    7.7400 N   0  0  0  0  0  4  0  0  0  0  0  0
    4.2420   -2.8450    6.5870 C   0  0  2  0  0  3  0  0  0  0  0  0
    2.7500   -3.1140    6.7090 C   0  0  0  0  0  2  0  0  0  0  0  0
    5.4150   -1.3900    7.6610 H   0  0  0  0  0  0  0  0  0  0  0  0
    4.7330   -2.4490    8.6060 H   0  0  0  0  0  0  0  0  0  0  0  0
    1.9070    0.4700    6.2450 C   0  0  0  0  0  1  0  0  0  0  0  0
    1.4380   -0.9760    6.2360 N   0  0  0  0  0  4  0  0  0  0  0  0
    1.4090   -1.5050    4.8190 C   0  0  0  0  0  1  0  0  0  0  0  0
    0.4500   -0.9170    6.5250 H   0  0  0  0  0  0  0  0  0  0  0  0
  1  9  1  0  0  0  0
  2  3  2  0  0  0  0
  2  1  1  0  0  0  0
  3  4  1  0  0  0  0
  4  9  2  0  0  0  0
  4  5  1  0  0  0  0
  5  6  2  0  0  0  0
  6  7  1  0  0  0  0
  7 23  1  0  0  0  0
  8  7  2  0  0  0  0
  9  8  1  0  0  0  0
 10  2  1  0  0  0  0
 11 10  2  0  0  0  0
 12 11  1  0  0  0  0
 13 12  2  0  0  0  0
 13 15  1  0  0  0  0
 14 13  1  0  0  0  0
 15 16  2  0  0  0  0
 16 10  1  0  0  0  0
 17  3  1  0  0  0  0
 17 18  1  0  0  0  0
 19 18  1  0  0  0  0
 20 19  1  0  0  0  0
 21 22  1  0  0  0  0
 21 20  1  0  0  0  0
 22 17  1  0  0  0  0
 23 24  2  0  0  0  0
 23 25  1  0  0  0  0
 26  1  1  0  0  0  0
 27 26  1  0  0  0  0
 28 27  2  0  0  0  0
 29 37  1  6  0  0  0
 29 30  1  0  0  0  0
 31 30  1  0  0  0  0
 31 35  1  0  0  0  0
 32 27  1  1  0  0  0
 32 33  1  0  0  0  0
 32 31  1  0  0  0  0
 33 29  1  0  0  0  0
 34 31  1  0  0  0  0
 37 36  1  0  0  0  0
 37 39  1  0  0  0  0
 38 37  1  0  0  0  0
M  END
>  <minimizedAffinity>
-4.70589781

$$$$
