
 OpenBabel09132204463D

 39 43  0  0  1  0  0  0  0  0999 V2000
    3.7790   -5.8940    7.2190 N   0  0  0  0  0  0  0  0  0  0  0  0
    2.9950   -6.6230    6.3430 C   0  0  0  0  0  0  0  0  0  0  0  0
    1.7650   -6.8400    6.9660 C   0  0  0  0  0  0  0  0  0  0  0  0
    1.8290   -6.2130    8.2560 C   0  0  0  0  0  0  0  0  0  0  0  0
    0.8960   -5.9870    9.2930 C   0  0  0  0  0  3  0  0  0  0  0  0
    1.2330   -5.1160   10.3340 C   0  0  0  0  0  3  0  0  0  0  0  0
    2.5190   -4.5880   10.4200 C   0  0  0  0  0  0  0  0  0  0  0  0
    3.5420   -5.0850    9.5950 C   0  0  0  0  0  3  0  0  0  0  0  0
    3.1290   -5.7370    8.4240 C   0  0  0  0  0  0  0  0  0  0  0  0
    3.4380   -7.0310    5.0090 C   0  0  0  0  0  0  0  0  0  0  0  0
    3.6450   -8.3860    4.7140 C   0  0  0  0  0  3  0  0  0  0  0  0
    4.0440   -8.7770    3.4350 C   0  0  0  0  0  3  0  0  0  0  0  0
    4.2420   -7.8140    2.4470 C   0  0  0  0  0  0  0  0  0  0  0  0
    4.7170   -8.3020    0.8690 Cl  0  0  0  0  0  0  0  0  0  0  0  0
    4.0540   -6.4630    2.7300 C   0  0  0  0  0  3  0  0  0  0  0  0
    3.6580   -6.0720    4.0110 C   0  0  0  0  0  3  0  0  0  0  0  0
    0.5770   -7.5690    6.3650 C   0  0  0  0  0  3  0  0  0  0  0  0
   -0.3190   -8.2290    7.4260 C   0  0  0  0  0  2  0  0  0  0  0  0
   -1.4960   -8.9630    6.7840 C   0  0  0  0  0  2  0  0  0  0  0  0
   -2.2980   -8.0480    5.8630 C   0  0  0  0  0  2  0  0  0  0  0  0
   -1.4120   -7.4040    4.8010 C   0  0  0  0  0  2  0  0  0  0  0  0
   -0.2350   -6.6610    5.4260 C   0  0  0  0  0  2  0  0  0  0  0  0
    2.7380   -3.2580   11.0960 C   0  0  0  0  0  0  0  0  0  0  0  0
    3.9830   -3.0040   11.3020 O   0  0  0  0  0  1  0  0  0  0  0  0
    1.7770   -2.4580   11.2050 O   0  0  0  0  0  0  0  0  0  0  0  0
    5.0700   -5.2920    6.8920 C   0  0  0  0  0  2  0  0  0  0  0  0
    5.0610   -3.8170    6.5470 C   0  0  0  0  0  0  0  0  0  0  0  0
    5.2880   -3.4690    5.3810 O   0  0  0  0  0  0  0  0  0  0  0  0
    4.7530   -0.5060    8.5210 C   0  0  2  0  0  3  0  0  0  0  0  0
    3.2810   -0.8220    8.1620 C   0  0  0  0  0  2  0  0  0  0  0  0
    3.3640   -2.0430    7.3430 N   0  0  0  0  0  4  0  0  0  0  0  0
    4.6630   -2.7290    7.5500 C   0  0  2  0  0  3  0  0  0  0  0  0
    5.6110   -1.5660    7.8000 C   0  0  0  0  0  2  0  0  0  0  0  0
    2.5100   -2.6840    7.4610 H   0  0  0  0  0  0  0  0  0  0  0  0
    3.1890   -1.7830    6.3640 H   0  0  0  0  0  0  0  0  0  0  0  0
    6.5140   -0.1500   10.3000 C   0  0  0  0  0  1  0  0  0  0  0  0
    5.0490   -0.4480   10.0250 N   0  0  0  0  0  4  0  0  0  0  0  0
    4.1680    0.4330   10.8820 C   0  0  0  0  0  1  0  0  0  0  0  0
    4.9180   -1.4030   10.3910 H   0  0  0  0  0  0  0  0  0  0  0  0
  1  9  1  0  0  0  0
  2  3  2  0  0  0  0
  2  1  1  0  0  0  0
  3  4  1  0  0  0  0
  4  9  2  0  0  0  0
  4  5  1  0  0  0  0
  5  6  2  0  0  0  0
  6  7  1  0  0  0  0
  7 23  1  0  0  0  0
  8  7  2  0  0  0  0
  9  8  1  0  0  0  0
 10  2  1  0  0  0  0
 11 10  1  0  0  0  0
 12 11  2  0  0  0  0
 13 15  2  0  0  0  0
 13 12  1  0  0  0  0
 14 13  1  0  0  0  0
 15 16  1  0  0  0  0
 16 10  2  0  0  0  0
 17  3  1  0  0  0  0
 17 18  1  0  0  0  0
 19 18  1  0  0  0  0
 20 19  1  0  0  0  0
 21 22  1  0  0  0  0
 21 20  1  0  0  0  0
 22 17  1  0  0  0  0
 23 25  2  0  0  0  0
 23 24  1  0  0  0  0
 26  1  1  0  0  0  0
 27 26  1  0  0  0  0
 28 27  2  0  0  0  0
 29 37  1  1  0  0  0
 30 29  1  0  0  0  0
 31 34  1  0  0  0  0
 31 32  1  0  0  0  0
 31 30  1  0  0  0  0
 32 27  1  6  0  0  0
 32 33  1  0  0  0  0
 33 29  1  0  0  0  0
 35 31  1  0  0  0  0
 37 36  1  0  0  0  0
 37 39  1  0  0  0  0
 37 38  1  0  0  0  0
M  END
>  <minimizedAffinity>
-5.35476828

$$$$
