
 OpenBabel09132204463D

 39 43  0  0  1  0  0  0  0  0999 V2000
    3.7610   -6.9000    4.9860 N   0  0  0  0  0  0  0  0  0  0  0  0
    3.6370   -5.8000    5.8160 C   0  0  0  0  0  0  0  0  0  0  0  0
    4.0650   -4.6840    5.0950 C   0  0  0  0  0  0  0  0  0  0  0  0
    4.4520   -5.1450    3.7920 C   0  0  0  0  0  0  0  0  0  0  0  0
    4.8560   -4.5090    2.5980 C   0  0  0  0  0  3  0  0  0  0  0  0
    4.9300   -5.2570    1.4190 C   0  0  0  0  0  3  0  0  0  0  0  0
    4.7430   -6.6370    1.4500 C   0  0  0  0  0  0  0  0  0  0  0  0
    4.6900   -7.3140    2.6800 C   0  0  0  0  0  3  0  0  0  0  0  0
    4.3590   -6.5370    3.7990 C   0  0  0  0  0  0  0  0  0  0  0  0
    3.1170   -5.8730    7.1830 C   0  0  0  0  0  0  0  0  0  0  0  0
    3.9530   -6.2610    8.2390 C   0  0  0  0  0  3  0  0  0  0  0  0
    3.4630   -6.3070    9.5450 C   0  0  0  0  0  3  0  0  0  0  0  0
    2.1340   -5.9680    9.8000 C   0  0  0  0  0  0  0  0  0  0  0  0
    1.5410   -6.0100   11.4120 Cl  0  0  0  0  0  0  0  0  0  0  0  0
    1.2900   -5.5940    8.7570 C   0  0  0  0  0  3  0  0  0  0  0  0
    1.7790   -5.5520    7.4490 C   0  0  0  0  0  3  0  0  0  0  0  0
    4.0760   -3.2500    5.5950 C   0  0  0  0  0  3  0  0  0  0  0  0
    2.6660   -2.7000    5.8660 C   0  0  0  0  0  2  0  0  0  0  0  0
    2.7150   -1.2540    6.3550 C   0  0  0  0  0  2  0  0  0  0  0  0
    3.6210   -1.1000    7.5740 C   0  0  0  0  0  2  0  0  0  0  0  0
    5.0240   -1.6320    7.3010 C   0  0  0  0  0  2  0  0  0  0  0  0
    4.9930   -3.0790    6.8180 C   0  0  0  0  0  2  0  0  0  0  0  0
    4.2210   -7.3490    0.2260 C   0  0  0  0  0  0  0  0  0  0  0  0
    3.2380   -8.1370    0.4910 O   0  0  0  0  0  1  0  0  0  0  0  0
    4.6110   -6.9850   -0.9100 O   0  0  0  0  0  0  0  0  0  0  0  0
    3.2480   -8.2370    5.2780 C   0  0  0  0  0  2  0  0  0  0  0  0
    1.7960   -8.4960    4.9290 C   0  0  0  0  0  0  0  0  0  0  0  0
    1.5170   -8.9650    3.8180 O   0  0  0  0  0  0  0  0  0  0  0  0
   -1.5310   -8.8050    6.8760 C   0  0  2  0  0  3  0  0  0  0  0  0
   -0.4700   -8.9660    7.9930 C   0  0  0  0  0  2  0  0  0  0  0  0
    0.8160   -8.9280    7.2780 N   0  0  0  0  0  4  0  0  0  0  0  0
    0.6530   -8.3190    5.9340 C   0  0  2  0  0  3  0  0  0  0  0  0
   -0.7520   -8.7530    5.5460 C   0  0  0  0  0  2  0  0  0  0  0  0
    1.6050   -8.4900    7.8600 H   0  0  0  0  0  0  0  0  0  0  0  0
    1.1950   -9.8820    7.2510 H   0  0  0  0  0  0  0  0  0  0  0  0
   -3.3350   -7.3850    5.8190 C   0  0  0  0  0  1  0  0  0  0  0  0
   -2.4660   -7.6010    7.0470 N   0  0  0  0  0  4  0  0  0  0  0  0
   -3.3090   -7.5360    8.3010 C   0  0  0  0  0  1  0  0  0  0  0  0
   -1.8670   -6.7610    7.0770 H   0  0  0  0  0  0  0  0  0  0  0  0
  1 26  1  0  0  0  0
  1  2  1  0  0  0  0
  2 10  1  0  0  0  0
  3 17  1  0  0  0  0
  3  2  2  0  0  0  0
  4  9  1  0  0  0  0
  4  3  1  0  0  0  0
  5  4  2  0  0  0  0
  6  7  2  0  0  0  0
  6  5  1  0  0  0  0
  7  8  1  0  0  0  0
  8  9  2  0  0  0  0
  9  1  1  0  0  0  0
 10 16  2  0  0  0  0
 10 11  1  0  0  0  0
 11 12  2  0  0  0  0
 12 13  1  0  0  0  0
 13 14  1  0  0  0  0
 15 13  2  0  0  0  0
 16 15  1  0  0  0  0
 17 18  1  0  0  0  0
 17 22  1  0  0  0  0
 18 19  1  0  0  0  0
 19 20  1  0  0  0  0
 21 20  1  0  0  0  0
 22 21  1  0  0  0  0
 23 24  1  0  0  0  0
 23  7  1  0  0  0  0
 25 23  2  0  0  0  0
 27 26  1  0  0  0  0
 28 27  2  0  0  0  0
 29 37  1  1  0  0  0
 29 30  1  0  0  0  0
 31 34  1  0  0  0  0
 31 30  1  0  0  0  0
 32 27  1  6  0  0  0
 32 31  1  0  0  0  0
 33 32  1  0  0  0  0
 33 29  1  0  0  0  0
 35 31  1  0  0  0  0
 36 37  1  0  0  0  0
 37 39  1  0  0  0  0
 37 38  1  0  0  0  0
M  END
>  <minimizedAffinity>
-6.62492895

$$$$
