
 OpenBabel09132204463D

 39 43  0  0  1  0  0  0  0  0999 V2000
    3.8750   -4.0610    7.5310 N   0  0  0  0  0  0  0  0  0  0  0  0
    3.1800   -5.1990    7.8960 C   0  0  0  0  0  0  0  0  0  0  0  0
    3.1410   -5.2350    9.2910 C   0  0  0  0  0  0  0  0  0  0  0  0
    3.8380   -4.0720    9.7630 C   0  0  0  0  0  0  0  0  0  0  0  0
    4.0460   -3.4920   11.0330 C   0  0  0  0  0  3  0  0  0  0  0  0
    4.5790   -2.2010   11.1140 C   0  0  0  0  0  3  0  0  0  0  0  0
    5.0280   -1.5530    9.9640 C   0  0  0  0  0  0  0  0  0  0  0  0
    5.1450   -2.2610    8.7570 C   0  0  0  0  0  3  0  0  0  0  0  0
    4.3780   -3.4290    8.6480 C   0  0  0  0  0  0  0  0  0  0  0  0
    2.5970   -6.1350    6.9320 C   0  0  0  0  0  0  0  0  0  0  0  0
    1.2910   -5.9450    6.4620 C   0  0  0  0  0  3  0  0  0  0  0  0
    0.7440   -6.8230    5.5250 C   0  0  0  0  0  3  0  0  0  0  0  0
    1.5000   -7.8970    5.0570 C   0  0  0  0  0  0  0  0  0  0  0  0
    0.8290   -8.9660    3.8910 Cl  0  0  0  0  0  0  0  0  0  0  0  0
    2.7950   -8.1050    5.5280 C   0  0  0  0  0  3  0  0  0  0  0  0
    3.3410   -7.2280    6.4680 C   0  0  0  0  0  3  0  0  0  0  0  0
    2.4530   -6.2900   10.1380 C   0  0  0  0  0  3  0  0  0  0  0  0
    0.9320   -6.3320    9.9220 C   0  0  0  0  0  2  0  0  0  0  0  0
    0.2720   -7.3960   10.7980 C   0  0  0  0  0  2  0  0  0  0  0  0
    0.9050   -8.7700   10.5910 C   0  0  0  0  0  2  0  0  0  0  0  0
    2.4130   -8.7320   10.8200 C   0  0  0  0  0  2  0  0  0  0  0  0
    3.0880   -7.6780    9.9460 C   0  0  0  0  0  2  0  0  0  0  0  0
    5.0210   -0.0460    9.9050 C   0  0  0  0  0  0  0  0  0  0  0  0
    5.9940    0.4280    9.2080 O   0  0  0  0  0  0  0  0  0  0  0  0
    4.0190    0.5820   10.3260 O   0  0  0  0  0  1  0  0  0  0  0  0
    3.9860   -3.5420    6.1690 C   0  0  0  0  0  2  0  0  0  0  0  0
    5.2480   -3.8980    5.4100 C   0  0  0  0  0  0  0  0  0  0  0  0
    6.3410   -3.5040    5.8380 O   0  0  0  0  0  0  0  0  0  0  0  0
    4.3260   -5.7970    2.1690 C   0  0  2  0  0  3  0  0  0  0  0  0
    5.7290   -5.2320    1.8420 C   0  0  0  0  0  2  0  0  0  0  0  0
    6.0860   -4.4380    3.0280 N   0  0  0  0  0  4  0  0  0  0  0  0
    5.2550   -4.8300    4.1940 C   0  0  2  0  0  3  0  0  0  0  0  0
    3.9340   -5.2080    3.5410 C   0  0  0  0  0  2  0  0  0  0  0  0
    7.1410   -4.4360    3.2290 H   0  0  0  0  0  0  0  0  0  0  0  0
    6.0040   -3.4430    2.7840 H   0  0  0  0  0  0  0  0  0  0  0  0
    3.9260   -7.8510    0.7520 C   0  0  0  0  0  1  0  0  0  0  0  0
    4.2270   -7.3270    2.1470 N   0  0  0  0  0  4  0  0  0  0  0  0
    5.3600   -8.1150    2.7670 C   0  0  0  0  0  1  0  0  0  0  0  0
    3.3890   -7.5790    2.6920 H   0  0  0  0  0  0  0  0  0  0  0  0
  1  2  1  0  0  0  0
  1  9  1  0  0  0  0
  2  3  2  0  0  0  0
  3  4  1  0  0  0  0
  3 17  1  0  0  0  0
  4  5  1  0  0  0  0
  5  6  2  0  0  0  0
  7  6  1  0  0  0  0
  8  7  2  0  0  0  0
  9  8  1  0  0  0  0
  9  4  2  0  0  0  0
 10  2  1  0  0  0  0
 11 10  2  0  0  0  0
 12 11  1  0  0  0  0
 13 12  2  0  0  0  0
 13 15  1  0  0  0  0
 14 13  1  0  0  0  0
 15 16  2  0  0  0  0
 16 10  1  0  0  0  0
 18 17  1  0  0  0  0
 18 19  1  0  0  0  0
 20 19  1  0  0  0  0
 20 21  1  0  0  0  0
 22 17  1  0  0  0  0
 22 21  1  0  0  0  0
 23  7  1  0  0  0  0
 23 25  1  0  0  0  0
 24 23  2  0  0  0  0
 26  1  1  0  0  0  0
 27 28  2  0  0  0  0
 27 26  1  0  0  0  0
 29 37  1  1  0  0  0
 29 33  1  0  0  0  0
 30 29  1  0  0  0  0
 30 31  1  0  0  0  0
 31 34  1  0  0  0  0
 31 32  1  0  0  0  0
 32 27  1  1  0  0  0
 33 32  1  0  0  0  0
 35 31  1  0  0  0  0
 36 37  1  0  0  0  0
 37 39  1  0  0  0  0
 37 38  1  0  0  0  0
M  END
>  <minimizedAffinity>
-5.50782299

$$$$
