
 OpenBabel09122221223D

 39 44  0  0  1  0  0  0  0  0999 V2000
    6.2700   -6.5990    0.4270 C   0  0  0  0  0  0  0  0  0  0  0  0
    6.0440   -5.7820   -0.6850 C   0  0  0  0  0  3  0  0  0  0  0  0
    7.0560   -4.9390   -1.1530 C   0  0  0  0  0  3  0  0  0  0  0  0
    8.2890   -4.8710   -0.4960 C   0  0  0  0  0  0  0  0  0  0  0  0
    8.5130   -5.6700    0.6210 C   0  0  0  0  0  3  0  0  0  0  0  0
    7.5060   -6.5260    1.0720 C   0  0  0  0  0  0  0  0  0  0  0  0
    7.7740   -7.3210    2.1190 F   0  0  0  0  0  0  0  0  0  0  0  0
    2.2320  -10.8380    1.6730 C   0  0  0  0  0  0  0  0  0  0  0  0
    1.9400  -10.0230    2.7790 C   0  0  0  0  0  3  0  0  0  0  0  0
    2.6150   -8.8190    3.0180 C   0  0  0  0  0  3  0  0  0  0  0  0
    3.6080   -8.4410    2.1050 C   0  0  0  0  0  0  0  0  0  0  0  0
    3.9270   -9.2260    0.9990 C   0  0  0  0  0  0  0  0  0  0  0  0
    3.2380  -10.4290    0.7770 C   0  0  0  0  0  3  0  0  0  0  0  0
    4.9410   -8.6540    0.2690 N   0  0  0  0  0  0  0  0  0  0  0  0
    5.2310   -7.5200    0.8730 C   0  0  0  0  0  0  0  0  0  0  0  0
    4.4660   -7.3630    2.0180 N   0  0  0  0  0  0  0  0  0  0  0  0
    4.6110   -6.2850    2.9920 C   0  0  0  0  0  3  0  0  0  0  0  0
    4.3780   -4.8900    2.3910 C   0  0  0  0  0  2  0  0  0  0  0  0
    4.5970   -3.7950    3.4360 C   0  0  0  0  0  2  0  0  0  0  0  0
    3.7530   -4.0290    4.6870 C   0  0  0  0  0  2  0  0  0  0  0  0
    4.0030   -5.4090    5.2880 C   0  0  0  0  0  2  0  0  0  0  0  0
    3.7750   -6.5180    4.2610 C   0  0  0  0  0  2  0  0  0  0  0  0
    0.6280  -12.4680    2.3410 O   0  0  0  0  0  1  0  0  0  0  0  0
    1.4790  -12.1360    1.4540 C   0  0  0  0  0  0  0  0  0  0  0  0
    1.7530  -12.8000    0.4050 O   0  0  0  0  0  0  0  0  0  0  0  0
    9.2140   -4.0590   -1.0880 O   0  0  0  0  0  0  0  0  0  0  0  0
   10.3180   -3.5280   -0.3210 C   0  0  1  0  0  3  0  0  0  0  0  0
   11.4630   -3.0470   -1.2020 C   0  0  0  0  0  0  0  0  0  0  0  0
   11.3910   -1.7780   -1.8000 C   0  0  0  0  0  3  0  0  0  0  0  0
   12.4360   -1.3190   -2.5970 C   0  0  0  0  0  3  0  0  0  0  0  0
   13.5300   -2.1450   -2.7790 C   0  0  0  0  0  3  0  0  0  0  0  0
   13.6410   -3.3690   -2.2230 N   0  0  0  0  0  0  0  0  0  0  0  0
   12.6220   -3.7790   -1.4320 C   0  0  0  0  0  3  0  0  0  0  0  0
    9.9180   -2.6990    0.8930 C   0  0  0  0  0  0  0  0  0  0  0  0
    9.2530   -1.4710    0.7650 C   0  0  0  0  0  3  0  0  0  0  0  0
    8.9360   -0.7190    1.8940 C   0  0  0  0  0  3  0  0  0  0  0  0
    9.3200   -1.2030    3.1310 C   0  0  0  0  0  3  0  0  0  0  0  0
   10.0030   -2.3530    3.3010 N   0  0  0  0  0  0  0  0  0  0  0  0
   10.2950   -3.0630    2.1850 C   0  0  0  0  0  3  0  0  0  0  0  0
  1 15  1  0  0  0  0
  1  6  1  0  0  0  0
  2  1  2  0  0  0  0
  3  2  1  0  0  0  0
  3  4  2  0  0  0  0
  4  5  1  0  0  0  0
  5  6  2  0  0  0  0
  6  7  1  0  0  0  0
  8  9  1  0  0  0  0
  9 10  2  0  0  0  0
 11 10  1  0  0  0  0
 12 11  2  0  0  0  0
 13 12  1  0  0  0  0
 13  8  2  0  0  0  0
 14 15  2  0  0  0  0
 14 12  1  0  0  0  0
 15 16  1  0  0  0  0
 16 11  1  0  0  0  0
 16 17  1  0  0  0  0
 17 22  1  0  0  0  0
 18 17  1  0  0  0  0
 18 19  1  0  0  0  0
 19 20  1  0  0  0  0
 20 21  1  0  0  0  0
 22 21  1  0  0  0  0
 24  8  1  0  0  0  0
 24 23  1  0  0  0  0
 25 24  2  0  0  0  0
 26  4  1  0  0  0  0
 27 26  1  6  0  0  0
 27 34  1  0  0  0  0
 28 27  1  0  0  0  0
 29 28  2  0  0  0  0
 30 29  1  0  0  0  0
 31 30  2  0  0  0  0
 31 32  1  0  0  0  0
 32 33  2  0  0  0  0
 33 28  1  0  0  0  0
 34 39  1  0  0  0  0
 35 34  2  0  0  0  0
 35 36  1  0  0  0  0
 36 37  2  0  0  0  0
 37 38  1  0  0  0  0
 39 38  2  0  0  0  0
M  END
>  <minimizedAffinity>
-10.3375521

$$$$

 OpenBabel09122221223D

 39 44  0  0  1  0  0  0  0  0999 V2000
    6.4060   -6.5540    0.6430 C   0  0  0  0  0  0  0  0  0  0  0  0
    7.6490   -6.4540    1.2750 C   0  0  0  0  0  3  0  0  0  0  0  0
    8.6290   -5.6000    0.7610 C   0  0  0  0  0  3  0  0  0  0  0  0
    8.3970   -4.8680   -0.4070 C   0  0  0  0  0  0  0  0  0  0  0  0
    7.1670   -4.9770   -1.0490 C   0  0  0  0  0  3  0  0  0  0  0  0
    6.1830   -5.8150   -0.5200 C   0  0  0  0  0  0  0  0  0  0  0  0
    4.9910   -5.8570   -1.1340 F   0  0  0  0  0  0  0  0  0  0  0  0
    2.3560  -10.5630    2.4770 C   0  0  0  0  0  0  0  0  0  0  0  0
    2.0790   -9.6070    3.4670 C   0  0  0  0  0  3  0  0  0  0  0  0
    2.7640   -8.3860    3.5380 C   0  0  0  0  0  3  0  0  0  0  0  0
    3.7500   -8.1400    2.5750 C   0  0  0  0  0  0  0  0  0  0  0  0
    4.0540   -9.0660    1.5800 C   0  0  0  0  0  0  0  0  0  0  0  0
    3.3570  -10.2840    1.5260 C   0  0  0  0  0  3  0  0  0  0  0  0
    5.0640   -8.6030    0.7720 N   0  0  0  0  0  0  0  0  0  0  0  0
    5.3670   -7.4010    1.2180 C   0  0  0  0  0  0  0  0  0  0  0  0
    4.6130   -7.0890    2.3380 N   0  0  0  0  0  0  0  0  0  0  0  0
    4.7740   -5.8910    3.1590 C   0  0  0  0  0  3  0  0  0  0  0  0
    4.2310   -4.6200    2.4880 C   0  0  0  0  0  2  0  0  0  0  0  0
    4.4730   -3.3880    3.3620 C   0  0  0  0  0  2  0  0  0  0  0  0
    3.9170   -3.5750    4.7710 C   0  0  0  0  0  2  0  0  0  0  0  0
    4.4740   -4.8310    5.4370 C   0  0  0  0  0  2  0  0  0  0  0  0
    4.2280   -6.0740    4.5850 C   0  0  0  0  0  2  0  0  0  0  0  0
    0.3370  -11.8180    2.6330 O   0  0  0  0  0  1  0  0  0  0  0  0
    1.5940  -11.8740    2.4390 C   0  0  0  0  0  0  0  0  0  0  0  0
    2.2630  -12.9320    2.2210 O   0  0  0  0  0  0  0  0  0  0  0  0
    9.4080   -4.0230   -0.7700 O   0  0  0  0  0  0  0  0  0  0  0  0
   10.3890   -3.5980    0.2010 C   0  0  1  0  0  3  0  0  0  0  0  0
   11.7920   -3.5160   -0.3850 C   0  0  0  0  0  0  0  0  0  0  0  0
   11.9580   -3.4100   -1.7750 C   0  0  0  0  0  3  0  0  0  0  0  0
   13.2340   -3.3200   -2.3240 C   0  0  0  0  0  3  0  0  0  0  0  0
   14.3170   -3.3410   -1.4650 C   0  0  0  0  0  3  0  0  0  0  0  0
   14.2050   -3.4400   -0.1240 N   0  0  0  0  0  0  0  0  0  0  0  0
   12.9510   -3.4990    0.3840 C   0  0  0  0  0  3  0  0  0  0  0  0
    9.9200   -2.5080    1.1560 C   0  0  0  0  0  0  0  0  0  0  0  0
    9.5450   -1.2360    0.7000 C   0  0  0  0  0  3  0  0  0  0  0  0
    9.1560   -0.2490    1.6040 C   0  0  0  0  0  3  0  0  0  0  0  0
    9.1810   -0.5510    2.9530 C   0  0  0  0  0  3  0  0  0  0  0  0
    9.5800   -1.7430    3.4420 N   0  0  0  0  0  0  0  0  0  0  0  0
    9.9490   -2.6830    2.5390 C   0  0  0  0  0  3  0  0  0  0  0  0
  1 15  1  0  0  0  0
  1  2  1  0  0  0  0
  3  2  2  0  0  0  0
  4  3  1  0  0  0  0
  5  6  1  0  0  0  0
  5  4  2  0  0  0  0
  6  1  2  0  0  0  0
  7  6  1  0  0  0  0
  8  9  1  0  0  0  0
  9 10  2  0  0  0  0
 11 10  1  0  0  0  0
 12 11  2  0  0  0  0
 13 12  1  0  0  0  0
 13  8  2  0  0  0  0
 14 15  2  0  0  0  0
 14 12  1  0  0  0  0
 15 16  1  0  0  0  0
 16 11  1  0  0  0  0
 16 17  1  0  0  0  0
 17 22  1  0  0  0  0
 18 17  1  0  0  0  0
 18 19  1  0  0  0  0
 19 20  1  0  0  0  0
 20 21  1  0  0  0  0
 22 21  1  0  0  0  0
 24  8  1  0  0  0  0
 24 23  1  0  0  0  0
 25 24  2  0  0  0  0
 26  4  1  0  0  0  0
 27 26  1  6  0  0  0
 27 34  1  0  0  0  0
 28 27  1  0  0  0  0
 28 33  1  0  0  0  0
 29 28  2  0  0  0  0
 30 29  1  0  0  0  0
 30 31  2  0  0  0  0
 31 32  1  0  0  0  0
 32 33  2  0  0  0  0
 34 39  1  0  0  0  0
 35 34  2  0  0  0  0
 35 36  1  0  0  0  0
 36 37  2  0  0  0  0
 37 38  1  0  0  0  0
 39 38  2  0  0  0  0
M  END
>  <minimizedAffinity>
-10.2692289

$$$$

 OpenBabel09122221223D

 39 44  0  0  1  0  0  0  0  0999 V2000
    5.6800   -7.3400    1.5670 C   0  0  0  0  0  0  0  0  0  0  0  0
    5.9420   -8.3070    2.5420 C   0  0  0  0  0  3  0  0  0  0  0  0
    5.1020   -9.4170    2.6720 C   0  0  0  0  0  3  0  0  0  0  0  0
    3.9720   -9.5550    1.8600 C   0  0  0  0  0  0  0  0  0  0  0  0
    3.6980   -8.5870    0.8990 C   0  0  0  0  0  3  0  0  0  0  0  0
    4.5510   -7.4910    0.7590 C   0  0  0  0  0  0  0  0  0  0  0  0
    4.2870   -6.6040   -0.2120 F   0  0  0  0  0  0  0  0  0  0  0  0
    9.6820   -3.0940    0.2280 C   0  0  0  0  0  0  0  0  0  0  0  0
    9.1120   -2.4230    1.3220 C   0  0  0  0  0  3  0  0  0  0  0  0
    8.0640   -2.9730    2.0720 C   0  0  0  0  0  3  0  0  0  0  0  0
    7.5910   -4.2360    1.6940 C   0  0  0  0  0  0  0  0  0  0  0  0
    8.1300   -4.9300    0.6130 C   0  0  0  0  0  0  0  0  0  0  0  0
    9.1800   -4.3610   -0.1260 C   0  0  0  0  0  3  0  0  0  0  0  0
    7.4880   -6.1310    0.4330 N   0  0  0  0  0  0  0  0  0  0  0  0
    6.5930   -6.2150    1.3960 C   0  0  0  0  0  0  0  0  0  0  0  0
    6.5970   -5.0660    2.1710 N   0  0  0  0  0  0  0  0  0  0  0  0
    5.6540   -4.7690    3.2470 C   0  0  0  0  0  3  0  0  0  0  0  0
    6.2380   -3.8420    4.3250 C   0  0  0  0  0  2  0  0  0  0  0  0
    5.2330   -3.6070    5.4530 C   0  0  0  0  0  2  0  0  0  0  0  0
    3.8950   -3.0980    4.9230 C   0  0  0  0  0  2  0  0  0  0  0  0
    3.3130   -4.0320    3.8650 C   0  0  0  0  0  2  0  0  0  0  0  0
    4.2990   -4.2670    2.7210 C   0  0  0  0  0  2  0  0  0  0  0  0
   12.0000   -2.7550   -0.2060 O   0  0  0  0  0  1  0  0  0  0  0  0
   10.8130   -2.4600   -0.5590 C   0  0  0  0  0  0  0  0  0  0  0  0
   10.4960   -1.6790   -1.5100 O   0  0  0  0  0  0  0  0  0  0  0  0
    3.2700  -10.7130    2.0420 O   0  0  0  0  0  0  0  0  0  0  0  0
    3.8820  -11.9910    1.7630 C   0  0  1  0  0  3  0  0  0  0  0  0
    4.0930  -12.8250    3.0200 C   0  0  0  0  0  0  0  0  0  0  0  0
    5.3910  -13.2220    3.3780 C   0  0  0  0  0  3  0  0  0  0  0  0
    5.6010  -13.9710    4.5320 C   0  0  0  0  0  3  0  0  0  0  0  0
    4.5020  -14.3100    5.3000 C   0  0  0  0  0  3  0  0  0  0  0  0
    3.2390  -13.9490    4.9940 N   0  0  0  0  0  0  0  0  0  0  0  0
    3.0670  -13.1980    3.8810 C   0  0  0  0  0  3  0  0  0  0  0  0
    3.3910  -12.6760    0.4930 C   0  0  0  0  0  0  0  0  0  0  0  0
    3.9630  -13.8690    0.0270 C   0  0  0  0  0  3  0  0  0  0  0  0
    3.5160  -14.4490   -1.1580 C   0  0  0  0  0  3  0  0  0  0  0  0
    2.5220  -13.8020   -1.8690 C   0  0  0  0  0  3  0  0  0  0  0  0
    1.9770  -12.6300   -1.4870 N   0  0  0  0  0  0  0  0  0  0  0  0
    2.4300  -12.0910   -0.3290 C   0  0  0  0  0  3  0  0  0  0  0  0
  1  2  1  0  0  0  0
  2  3  2  0  0  0  0
  4 26  1  0  0  0  0
  4  3  1  0  0  0  0
  5  4  2  0  0  0  0
  6  5  1  0  0  0  0
  6  1  2  0  0  0  0
  7  6  1  0  0  0  0
  8  9  1  0  0  0  0
  9 10  2  0  0  0  0
 11 10  1  0  0  0  0
 11 16  1  0  0  0  0
 12 11  2  0  0  0  0
 13  8  2  0  0  0  0
 13 12  1  0  0  0  0
 14 12  1  0  0  0  0
 14 15  2  0  0  0  0
 15  1  1  0  0  0  0
 15 16  1  0  0  0  0
 16 17  1  0  0  0  0
 17 18  1  0  0  0  0
 18 19  1  0  0  0  0
 20 19  1  0  0  0  0
 21 20  1  0  0  0  0
 22 17  1  0  0  0  0
 22 21  1  0  0  0  0
 24 23  1  0  0  0  0
 24  8  1  0  0  0  0
 25 24  2  0  0  0  0
 27 26  1  1  0  0  0
 27 28  1  0  0  0  0
 28 29  2  0  0  0  0
 28 33  1  0  0  0  0
 29 30  1  0  0  0  0
 30 31  2  0  0  0  0
 32 31  1  0  0  0  0
 33 32  2  0  0  0  0
 34 27  1  0  0  0  0
 35 34  1  0  0  0  0
 36 35  2  0  0  0  0
 37 38  2  0  0  0  0
 37 36  1  0  0  0  0
 38 39  1  0  0  0  0
 39 34  2  0  0  0  0
M  END
>  <minimizedAffinity>
-9.82217598

$$$$

 OpenBabel09122221223D

 39 44  0  0  1  0  0  0  0  0999 V2000
    6.2770   -6.7140    0.6320 C   0  0  0  0  0  0  0  0  0  0  0  0
    7.5400   -6.7930    1.2250 C   0  0  0  0  0  3  0  0  0  0  0  0
    8.5770   -5.9700    0.7770 C   0  0  0  0  0  3  0  0  0  0  0  0
    8.3790   -5.0890   -0.2910 C   0  0  0  0  0  0  0  0  0  0  0  0
    7.1270   -5.0190   -0.8960 C   0  0  0  0  0  3  0  0  0  0  0  0
    6.0880   -5.8280   -0.4310 C   0  0  0  0  0  0  0  0  0  0  0  0
    4.8810   -5.6970   -1.0010 F   0  0  0  0  0  0  0  0  0  0  0  0
    1.9790  -10.5840    2.1780 C   0  0  0  0  0  0  0  0  0  0  0  0
    1.7450   -9.6750    3.2220 C   0  0  0  0  0  3  0  0  0  0  0  0
    2.4970   -8.5040    3.3750 C   0  0  0  0  0  3  0  0  0  0  0  0
    3.5090   -8.2560    2.4380 C   0  0  0  0  0  0  0  0  0  0  0  0
    3.7720   -9.1370    1.3900 C   0  0  0  0  0  0  0  0  0  0  0  0
    3.0060  -10.3060    1.2540 C   0  0  0  0  0  3  0  0  0  0  0  0
    4.8170   -8.6850    0.6210 N   0  0  0  0  0  0  0  0  0  0  0  0
    5.1820   -7.5320    1.1430 C   0  0  0  0  0  0  0  0  0  0  0  0
    4.4340   -7.2450    2.2740 N   0  0  0  0  0  0  0  0  0  0  0  0
    4.6530   -6.1110    3.1680 C   0  0  0  0  0  3  0  0  0  0  0  0
    4.3070   -4.7580    2.5280 C   0  0  0  0  0  2  0  0  0  0  0  0
    4.6070   -3.6030    3.4830 C   0  0  0  0  0  2  0  0  0  0  0  0
    3.9180   -3.7900    4.8320 C   0  0  0  0  0  2  0  0  0  0  0  0
    4.2800   -5.1290    5.4710 C   0  0  0  0  0  2  0  0  0  0  0  0
    3.9740   -6.2970    4.5350 C   0  0  0  0  0  2  0  0  0  0  0  0
    1.3940  -12.6080    1.0650 O   0  0  0  0  0  0  0  0  0  0  0  0
    1.1430  -11.8430    2.0520 C   0  0  0  0  0  0  0  0  0  0  0  0
    0.2520  -12.0430    2.9350 O   0  0  0  0  0  1  0  0  0  0  0  0
    9.4490   -4.2960   -0.5920 O   0  0  0  0  0  0  0  0  0  0  0  0
    9.5270   -2.9470   -0.0800 C   0  0  1  0  0  3  0  0  0  0  0  0
    9.5140   -2.8990    1.4420 C   0  0  0  0  0  0  0  0  0  0  0  0
    8.2880   -2.8690    2.1250 C   0  0  0  0  0  3  0  0  0  0  0  0
    8.2610   -2.8390    3.5160 C   0  0  0  0  0  3  0  0  0  0  0  0
    9.4670   -2.8370    4.1930 C   0  0  0  0  0  3  0  0  0  0  0  0
   10.6670   -2.8670    3.5780 N   0  0  0  0  0  0  0  0  0  0  0  0
   10.6630   -2.9220    2.2260 C   0  0  0  0  0  3  0  0  0  0  0  0
   10.4660   -2.0220   -0.8430 C   0  0  0  0  0  0  0  0  0  0  0  0
   10.2080   -0.6490   -0.9750 C   0  0  0  0  0  3  0  0  0  0  0  0
   11.0680    0.1620   -1.7120 C   0  0  0  0  0  3  0  0  0  0  0  0
   12.1560   -0.4280   -2.3280 C   0  0  0  0  0  3  0  0  0  0  0  0
   12.4190   -1.7490   -2.2700 N   0  0  0  0  0  0  0  0  0  0  0  0
   11.5660   -2.5120   -1.5450 C   0  0  0  0  0  3  0  0  0  0  0  0
  1 15  1  0  0  0  0
  1  2  1  0  0  0  0
  3  2  2  0  0  0  0
  4  3  1  0  0  0  0
  5  6  1  0  0  0  0
  5  4  2  0  0  0  0
  6  1  2  0  0  0  0
  7  6  1  0  0  0  0
  8  9  1  0  0  0  0
  9 10  2  0  0  0  0
 11 10  1  0  0  0  0
 12 11  2  0  0  0  0
 13 12  1  0  0  0  0
 13  8  2  0  0  0  0
 14 15  2  0  0  0  0
 14 12  1  0  0  0  0
 15 16  1  0  0  0  0
 16 11  1  0  0  0  0
 16 17  1  0  0  0  0
 17 22  1  0  0  0  0
 18 17  1  0  0  0  0
 18 19  1  0  0  0  0
 19 20  1  0  0  0  0
 20 21  1  0  0  0  0
 22 21  1  0  0  0  0
 23 24  2  0  0  0  0
 24  8  1  0  0  0  0
 24 25  1  0  0  0  0
 26  4  1  0  0  0  0
 27 26  1  1  0  0  0
 27 28  1  0  0  0  0
 28 29  2  0  0  0  0
 28 33  1  0  0  0  0
 29 30  1  0  0  0  0
 30 31  2  0  0  0  0
 32 31  1  0  0  0  0
 33 32  2  0  0  0  0
 34 27  1  0  0  0  0
 35 34  1  0  0  0  0
 36 35  2  0  0  0  0
 37 38  2  0  0  0  0
 37 36  1  0  0  0  0
 38 39  1  0  0  0  0
 39 34  2  0  0  0  0
M  END
>  <minimizedAffinity>
-9.76711655

$$$$

 OpenBabel09122221223D

 39 44  0  0  1  0  0  0  0  0999 V2000
    4.9480   -7.6160    1.9840 C   0  0  0  0  0  0  0  0  0  0  0  0
    4.9310   -8.2820    3.2130 C   0  0  0  0  0  3  0  0  0  0  0  0
    4.0000   -9.2970    3.4470 C   0  0  0  0  0  3  0  0  0  0  0  0
    3.0510   -9.6340    2.4770 C   0  0  0  0  0  0  0  0  0  0  0  0
    3.0530   -8.9630    1.2570 C   0  0  0  0  0  3  0  0  0  0  0  0
    3.9990   -7.9630    1.0200 C   0  0  0  0  0  0  0  0  0  0  0  0
    4.0070   -7.3730   -0.1850 F   0  0  0  0  0  0  0  0  0  0  0  0
    9.3150   -3.8810    0.3050 C   0  0  0  0  0  0  0  0  0  0  0  0
    8.8240   -3.0790    1.3480 C   0  0  0  0  0  3  0  0  0  0  0  0
    7.7370   -3.4690    2.1420 C   0  0  0  0  0  3  0  0  0  0  0  0
    7.1440   -4.7070    1.8640 C   0  0  0  0  0  0  0  0  0  0  0  0
    7.6020   -5.5280    0.8370 C   0  0  0  0  0  0  0  0  0  0  0  0
    8.6920   -5.1190    0.0520 C   0  0  0  0  0  3  0  0  0  0  0  0
    6.8480   -6.6730    0.7520 N   0  0  0  0  0  0  0  0  0  0  0  0
    5.9610   -6.5990    1.7230 C   0  0  0  0  0  0  0  0  0  0  0  0
    6.0820   -5.4000    2.4080 N   0  0  0  0  0  0  0  0  0  0  0  0
    5.1830   -4.9340    3.4620 C   0  0  0  0  0  3  0  0  0  0  0  0
    5.8970   -4.1100    4.5450 C   0  0  0  0  0  2  0  0  0  0  0  0
    4.9260   -3.6940    5.6500 C   0  0  0  0  0  2  0  0  0  0  0  0
    3.7050   -2.9690    5.0900 C   0  0  0  0  0  2  0  0  0  0  0  0
    2.9920   -3.8010    4.0260 C   0  0  0  0  0  2  0  0  0  0  0  0
    3.9440   -4.2140    2.9050 C   0  0  0  0  0  2  0  0  0  0  0  0
   10.3760   -2.2950   -1.1190 O   0  0  0  0  0  0  0  0  0  0  0  0
   10.4910   -3.4190   -0.5330 C   0  0  0  0  0  0  0  0  0  0  0  0
   11.5020   -4.1860   -0.5930 O   0  0  0  0  0  1  0  0  0  0  0  0
    2.2390  -10.6830    2.8020 O   0  0  0  0  0  0  0  0  0  0  0  0
    2.6530  -12.0400    2.5280 C   0  0  1  0  0  3  0  0  0  0  0  0
    2.7460  -12.3310    1.0360 C   0  0  0  0  0  0  0  0  0  0  0  0
    4.0060  -12.4890    0.4370 C   0  0  0  0  0  3  0  0  0  0  0  0
    4.1060  -12.7700   -0.9220 C   0  0  0  0  0  3  0  0  0  0  0  0
    2.9380  -12.8830   -1.6530 C   0  0  0  0  0  3  0  0  0  0  0  0
    1.7070  -12.7400   -1.1200 N   0  0  0  0  0  0  0  0  0  0  0  0
    1.6390  -12.4940    0.2100 C   0  0  0  0  0  3  0  0  0  0  0  0
    3.7300  -12.5840    3.4580 C   0  0  0  0  0  0  0  0  0  0  0  0
    3.4840  -12.8200    4.8180 C   0  0  0  0  0  3  0  0  0  0  0  0
    4.5020  -13.2830    5.6490 C   0  0  0  0  0  3  0  0  0  0  0  0
    5.7570  -13.4710    5.1030 C   0  0  0  0  0  3  0  0  0  0  0  0
    6.0550  -13.2130    3.8130 N   0  0  0  0  0  0  0  0  0  0  0  0
    5.0440  -12.7660    3.0290 C   0  0  0  0  0  3  0  0  0  0  0  0
  1  2  1  0  0  0  0
  2  3  2  0  0  0  0
  4 26  1  0  0  0  0
  4  3  1  0  0  0  0
  5  4  2  0  0  0  0
  6  5  1  0  0  0  0
  6  1  2  0  0  0  0
  7  6  1  0  0  0  0
  8  9  1  0  0  0  0
  9 10  2  0  0  0  0
 11 10  1  0  0  0  0
 11 16  1  0  0  0  0
 12 11  2  0  0  0  0
 13  8  2  0  0  0  0
 13 12  1  0  0  0  0
 14 12  1  0  0  0  0
 14 15  2  0  0  0  0
 15  1  1  0  0  0  0
 15 16  1  0  0  0  0
 16 17  1  0  0  0  0
 17 18  1  0  0  0  0
 18 19  1  0  0  0  0
 20 19  1  0  0  0  0
 21 20  1  0  0  0  0
 22 17  1  0  0  0  0
 22 21  1  0  0  0  0
 23 24  2  0  0  0  0
 24  8  1  0  0  0  0
 25 24  1  0  0  0  0
 27 26  1  6  0  0  0
 27 34  1  0  0  0  0
 28 27  1  0  0  0  0
 29 28  1  0  0  0  0
 30 29  2  0  0  0  0
 31 32  2  0  0  0  0
 31 30  1  0  0  0  0
 32 33  1  0  0  0  0
 33 28  2  0  0  0  0
 34 35  1  0  0  0  0
 35 36  2  0  0  0  0
 37 36  1  0  0  0  0
 38 37  2  0  0  0  0
 39 34  2  0  0  0  0
 39 38  1  0  0  0  0
M  END
>  <minimizedAffinity>
-9.12469387

$$$$

 OpenBabel09122221223D

 39 44  0  0  1  0  0  0  0  0999 V2000
    5.5050   -7.2680    1.2770 C   0  0  0  0  0  0  0  0  0  0  0  0
    4.3610   -7.2360    0.4750 C   0  0  0  0  0  3  0  0  0  0  0  0
    3.3850   -8.2280    0.6050 C   0  0  0  0  0  3  0  0  0  0  0  0
    3.5570   -9.2840    1.5060 C   0  0  0  0  0  0  0  0  0  0  0  0
    4.7020   -9.3300    2.2950 C   0  0  0  0  0  3  0  0  0  0  0  0
    5.6640   -8.3250    2.1770 C   0  0  0  0  0  0  0  0  0  0  0  0
    6.7300   -8.3710    2.9900 F   0  0  0  0  0  0  0  0  0  0  0  0
    9.7750   -3.2100    0.2120 C   0  0  0  0  0  0  0  0  0  0  0  0
    9.2600   -2.5880    1.3600 C   0  0  0  0  0  3  0  0  0  0  0  0
    8.1820   -3.1210    2.0790 C   0  0  0  0  0  3  0  0  0  0  0  0
    7.6230   -4.3180    1.6140 C   0  0  0  0  0  0  0  0  0  0  0  0
    8.1060   -4.9630    0.4770 C   0  0  0  0  0  0  0  0  0  0  0  0
    9.1870   -4.4110   -0.2300 C   0  0  0  0  0  3  0  0  0  0  0  0
    7.3830   -6.1010    0.2150 N   0  0  0  0  0  0  0  0  0  0  0  0
    6.4910   -6.1980    1.1800 C   0  0  0  0  0  0  0  0  0  0  0  0
    6.5780   -5.1130    2.0390 N   0  0  0  0  0  0  0  0  0  0  0  0
    5.6650   -4.8350    3.1450 C   0  0  0  0  0  3  0  0  0  0  0  0
    6.2780   -3.9270    4.2220 C   0  0  0  0  0  2  0  0  0  0  0  0
    5.3040   -3.7130    5.3820 C   0  0  0  0  0  2  0  0  0  0  0  0
    3.9520   -3.1960    4.8980 C   0  0  0  0  0  2  0  0  0  0  0  0
    3.3420   -4.1110    3.8400 C   0  0  0  0  0  2  0  0  0  0  0  0
    4.2950   -4.3260    2.6660 C   0  0  0  0  0  2  0  0  0  0  0  0
   12.1080   -2.8340   -0.0900 O   0  0  0  0  0  1  0  0  0  0  0  0
   10.9410   -2.5960   -0.5390 C   0  0  0  0  0  0  0  0  0  0  0  0
   10.6700   -1.8870   -1.5580 O   0  0  0  0  0  0  0  0  0  0  0  0
    2.5050  -10.1520    1.5840 O   0  0  0  0  0  0  0  0  0  0  0  0
    2.7320  -11.5520    1.8610 C   0  0  1  0  0  3  0  0  0  0  0  0
    1.9590  -12.0380    3.0800 C   0  0  0  0  0  0  0  0  0  0  0  0
    2.6080  -12.8240    4.0450 C   0  0  0  0  0  3  0  0  0  0  0  0
    1.9190  -13.2640    5.1700 C   0  0  0  0  0  3  0  0  0  0  0  0
    0.5890  -12.9080    5.3020 C   0  0  0  0  0  3  0  0  0  0  0  0
   -0.0740  -12.1550    4.4010 N   0  0  0  0  0  0  0  0  0  0  0  0
    0.6280  -11.7190    3.3300 C   0  0  0  0  0  3  0  0  0  0  0  0
    2.8140  -12.4460    0.6300 C   0  0  0  0  0  0  0  0  0  0  0  0
    3.7860  -13.4500    0.5080 C   0  0  0  0  0  3  0  0  0  0  0  0
    3.8580  -14.2250   -0.6470 C   0  0  0  0  0  3  0  0  0  0  0  0
    2.9700  -13.9560   -1.6720 C   0  0  0  0  0  3  0  0  0  0  0  0
    2.0510  -12.9710   -1.6210 N   0  0  0  0  0  0  0  0  0  0  0  0
    2.0030  -12.2350   -0.4840 C   0  0  0  0  0  3  0  0  0  0  0  0
  1  6  1  0  0  0  0
  2  3  1  0  0  0  0
  2  1  2  0  0  0  0
  3  4  2  0  0  0  0
  4 26  1  0  0  0  0
  4  5  1  0  0  0  0
  6  5  2  0  0  0  0
  6  7  1  0  0  0  0
  8  9  1  0  0  0  0
  9 10  2  0  0  0  0
 11 16  1  0  0  0  0
 11 10  1  0  0  0  0
 12 11  2  0  0  0  0
 13  8  2  0  0  0  0
 13 12  1  0  0  0  0
 14 12  1  0  0  0  0
 14 15  2  0  0  0  0
 15  1  1  0  0  0  0
 15 16  1  0  0  0  0
 16 17  1  0  0  0  0
 17 18  1  0  0  0  0
 18 19  1  0  0  0  0
 20 19  1  0  0  0  0
 21 20  1  0  0  0  0
 22 17  1  0  0  0  0
 22 21  1  0  0  0  0
 24 23  1  0  0  0  0
 24  8  1  0  0  0  0
 25 24  2  0  0  0  0
 27 26  1  6  0  0  0
 27 28  1  0  0  0  0
 28 33  2  0  0  0  0
 28 29  1  0  0  0  0
 29 30  2  0  0  0  0
 30 31  1  0  0  0  0
 32 31  2  0  0  0  0
 33 32  1  0  0  0  0
 34 27  1  0  0  0  0
 35 34  1  0  0  0  0
 36 35  2  0  0  0  0
 37 38  2  0  0  0  0
 37 36  1  0  0  0  0
 38 39  1  0  0  0  0
 39 34  2  0  0  0  0
M  END
>  <minimizedAffinity>
-9.11549091

$$$$

 OpenBabel09122221223D

 39 44  0  0  1  0  0  0  0  0999 V2000
    5.6210   -7.2850    1.5120 C   0  0  0  0  0  0  0  0  0  0  0  0
    5.8570   -8.2690    2.4770 C   0  0  0  0  0  3  0  0  0  0  0  0
    4.9880   -9.3560    2.5980 C   0  0  0  0  0  3  0  0  0  0  0  0
    3.8530   -9.4560    1.7870 C   0  0  0  0  0  0  0  0  0  0  0  0
    3.6040   -8.4710    0.8360 C   0  0  0  0  0  3  0  0  0  0  0  0
    4.4870   -7.3970    0.7050 C   0  0  0  0  0  0  0  0  0  0  0  0
    4.2460   -6.4930   -0.2570 F   0  0  0  0  0  0  0  0  0  0  0  0
    9.7310   -3.1350    0.2040 C   0  0  0  0  0  0  0  0  0  0  0  0
    9.1910   -2.4660    1.3140 C   0  0  0  0  0  3  0  0  0  0  0  0
    8.1340   -2.9970    2.0640 C   0  0  0  0  0  3  0  0  0  0  0  0
    7.6220   -4.2400    1.6710 C   0  0  0  0  0  0  0  0  0  0  0  0
    8.1300   -4.9320    0.5740 C   0  0  0  0  0  0  0  0  0  0  0  0
    9.1900   -4.3820   -0.1660 C   0  0  0  0  0  3  0  0  0  0  0  0
    7.4530   -6.1110    0.3810 N   0  0  0  0  0  0  0  0  0  0  0  0
    6.5640   -6.1850    1.3510 C   0  0  0  0  0  0  0  0  0  0  0  0
    6.6080   -5.0490    2.1440 N   0  0  0  0  0  0  0  0  0  0  0  0
    5.6840   -4.7420    3.2330 C   0  0  0  0  0  3  0  0  0  0  0  0
    6.2880   -3.8120    4.2960 C   0  0  0  0  0  2  0  0  0  0  0  0
    5.3020   -3.5660    5.4390 C   0  0  0  0  0  2  0  0  0  0  0  0
    3.9580   -3.0550    4.9280 C   0  0  0  0  0  2  0  0  0  0  0  0
    3.3560   -3.9930    3.8840 C   0  0  0  0  0  2  0  0  0  0  0  0
    4.3220   -4.2380    2.7260 C   0  0  0  0  0  2  0  0  0  0  0  0
   12.0530   -2.7420   -0.1590 O   0  0  0  0  0  1  0  0  0  0  0  0
   10.8730   -2.5210   -0.5840 C   0  0  0  0  0  0  0  0  0  0  0  0
   10.5710   -1.8290   -1.6060 O   0  0  0  0  0  0  0  0  0  0  0  0
    3.1190  -10.5950    1.9590 O   0  0  0  0  0  0  0  0  0  0  0  0
    2.8350  -11.0890    3.2870 C   0  0  1  0  0  3  0  0  0  0  0  0
    1.4290  -10.7340    3.7530 C   0  0  0  0  0  0  0  0  0  0  0  0
    1.2280   -9.5890    4.5400 C   0  0  0  0  0  3  0  0  0  0  0  0
   -0.0520   -9.2440    4.9620 C   0  0  0  0  0  3  0  0  0  0  0  0
   -1.1050  -10.0590    4.5870 C   0  0  0  0  0  3  0  0  0  0  0  0
   -0.9580  -11.1660    3.8310 N   0  0  0  0  0  0  0  0  0  0  0  0
    0.2950  -11.4630    3.4130 C   0  0  0  0  0  3  0  0  0  0  0  0
    3.3880  -12.4750    3.5900 C   0  0  0  0  0  0  0  0  0  0  0  0
    3.2520  -13.0670    4.8540 C   0  0  0  0  0  3  0  0  0  0  0  0
    3.8030  -14.3210    5.1090 C   0  0  0  0  0  3  0  0  0  0  0  0
    4.5080  -14.9440    4.0960 C   0  0  0  0  0  3  0  0  0  0  0  0
    4.7070  -14.3950    2.8810 N   0  0  0  0  0  0  0  0  0  0  0  0
    4.1570  -13.1760    2.6620 C   0  0  0  0  0  3  0  0  0  0  0  0
  1  2  1  0  0  0  0
  2  3  2  0  0  0  0
  4 26  1  0  0  0  0
  4  3  1  0  0  0  0
  5  4  2  0  0  0  0
  6  5  1  0  0  0  0
  6  1  2  0  0  0  0
  7  6  1  0  0  0  0
  8  9  1  0  0  0  0
  9 10  2  0  0  0  0
 11 10  1  0  0  0  0
 11 16  1  0  0  0  0
 12 11  2  0  0  0  0
 13  8  2  0  0  0  0
 13 12  1  0  0  0  0
 14 12  1  0  0  0  0
 14 15  2  0  0  0  0
 15  1  1  0  0  0  0
 15 16  1  0  0  0  0
 16 17  1  0  0  0  0
 17 18  1  0  0  0  0
 18 19  1  0  0  0  0
 20 19  1  0  0  0  0
 21 20  1  0  0  0  0
 22 17  1  0  0  0  0
 22 21  1  0  0  0  0
 24 23  1  0  0  0  0
 24  8  1  0  0  0  0
 25 24  2  0  0  0  0
 27 26  1  6  0  0  0
 27 34  1  0  0  0  0
 27 28  1  0  0  0  0
 28 29  1  0  0  0  0
 29 30  2  0  0  0  0
 31 30  1  0  0  0  0
 32 31  2  0  0  0  0
 33 28  2  0  0  0  0
 33 32  1  0  0  0  0
 34 35  1  0  0  0  0
 35 36  2  0  0  0  0
 37 36  1  0  0  0  0
 38 37  2  0  0  0  0
 39 38  1  0  0  0  0
 39 34  2  0  0  0  0
M  END
>  <minimizedAffinity>
-9.05163383

$$$$

 OpenBabel09122221223D

 39 44  0  0  1  0  0  0  0  0999 V2000
    5.9710   -7.3840    1.6790 C   0  0  0  0  0  0  0  0  0  0  0  0
    6.3430   -8.3420    2.6260 C   0  0  0  0  0  3  0  0  0  0  0  0
    5.5620   -9.4860    2.8110 C   0  0  0  0  0  3  0  0  0  0  0  0
    4.3810   -9.6690    2.0830 C   0  0  0  0  0  0  0  0  0  0  0  0
    3.9980   -8.7100    1.1500 C   0  0  0  0  0  3  0  0  0  0  0  0
    4.7930   -7.5790    0.9540 C   0  0  0  0  0  0  0  0  0  0  0  0
    4.4230   -6.7000    0.0100 F   0  0  0  0  0  0  0  0  0  0  0  0
    9.7420   -3.0040    0.1160 C   0  0  0  0  0  0  0  0  0  0  0  0
    9.1330   -2.3080    1.1730 C   0  0  0  0  0  3  0  0  0  0  0  0
    8.1130   -2.8730    1.9500 C   0  0  0  0  0  3  0  0  0  0  0  0
    7.7110   -4.1780    1.6410 C   0  0  0  0  0  0  0  0  0  0  0  0
    8.2900   -4.8990    0.5980 C   0  0  0  0  0  0  0  0  0  0  0  0
    9.3100   -4.3140   -0.1690 C   0  0  0  0  0  3  0  0  0  0  0  0
    7.7150   -6.1410    0.4820 N   0  0  0  0  0  0  0  0  0  0  0  0
    6.8230   -6.2220    1.4480 C   0  0  0  0  0  0  0  0  0  0  0  0
    6.7620   -5.0350    2.1610 N   0  0  0  0  0  0  0  0  0  0  0  0
    5.8000   -4.7310    3.2180 C   0  0  0  0  0  3  0  0  0  0  0  0
    6.3610   -3.7900    4.2950 C   0  0  0  0  0  2  0  0  0  0  0  0
    5.3370   -3.5490    5.4050 C   0  0  0  0  0  2  0  0  0  0  0  0
    4.0050   -3.0540    4.8490 C   0  0  0  0  0  2  0  0  0  0  0  0
    3.4460   -4.0020    3.7920 C   0  0  0  0  0  2  0  0  0  0  0  0
    4.4500   -4.2440    2.6670 C   0  0  0  0  0  2  0  0  0  0  0  0
   12.0390   -2.6660   -0.4150 O   0  0  0  0  0  1  0  0  0  0  0  0
   10.8390   -2.3530   -0.7030 C   0  0  0  0  0  0  0  0  0  0  0  0
   10.4840   -1.5400   -1.6130 O   0  0  0  0  0  0  0  0  0  0  0  0
    3.7420  -10.8550    2.3090 O   0  0  0  0  0  0  0  0  0  0  0  0
    2.4150  -11.0810    1.7850 C   0  0  1  0  0  3  0  0  0  0  0  0
    2.3380  -12.3230    0.9070 C   0  0  0  0  0  0  0  0  0  0  0  0
    2.2590  -12.1810   -0.4880 C   0  0  0  0  0  3  0  0  0  0  0  0
    2.2020  -13.3070   -1.3040 C   0  0  0  0  0  3  0  0  0  0  0  0
    2.2240  -14.5520   -0.7030 C   0  0  0  0  0  3  0  0  0  0  0  0
    2.3010  -14.7340    0.6320 N   0  0  0  0  0  0  0  0  0  0  0  0
    2.3820  -13.6220    1.4000 C   0  0  0  0  0  3  0  0  0  0  0  0
    1.2810  -10.7920    2.7600 C   0  0  0  0  0  0  0  0  0  0  0  0
    1.2690   -9.6410    3.5620 C   0  0  0  0  0  3  0  0  0  0  0  0
    0.2350   -9.4260    4.4710 C   0  0  0  0  0  3  0  0  0  0  0  0
   -0.7520  -10.3870    4.5780 C   0  0  0  0  0  3  0  0  0  0  0  0
   -0.7590  -11.5310    3.8650 N   0  0  0  0  0  0  0  0  0  0  0  0
    0.2580  -11.7120    2.9880 C   0  0  0  0  0  3  0  0  0  0  0  0
  1  2  1  0  0  0  0
  2  3  2  0  0  0  0
  4 26  1  0  0  0  0
  4  3  1  0  0  0  0
  5  4  2  0  0  0  0
  6  5  1  0  0  0  0
  6  1  2  0  0  0  0
  7  6  1  0  0  0  0
  8  9  1  0  0  0  0
  9 10  2  0  0  0  0
 11 10  1  0  0  0  0
 11 16  1  0  0  0  0
 12 11  2  0  0  0  0
 13  8  2  0  0  0  0
 13 12  1  0  0  0  0
 14 12  1  0  0  0  0
 14 15  2  0  0  0  0
 15  1  1  0  0  0  0
 15 16  1  0  0  0  0
 16 17  1  0  0  0  0
 17 18  1  0  0  0  0
 18 19  1  0  0  0  0
 20 19  1  0  0  0  0
 21 20  1  0  0  0  0
 22 17  1  0  0  0  0
 22 21  1  0  0  0  0
 24 23  1  0  0  0  0
 24  8  1  0  0  0  0
 25 24  2  0  0  0  0
 27 26  1  1  0  0  0
 27 34  1  0  0  0  0
 28 33  1  0  0  0  0
 28 27  1  0  0  0  0
 29 28  2  0  0  0  0
 30 31  2  0  0  0  0
 30 29  1  0  0  0  0
 31 32  1  0  0  0  0
 32 33  2  0  0  0  0
 34 39  2  0  0  0  0
 34 35  1  0  0  0  0
 35 36  2  0  0  0  0
 36 37  1  0  0  0  0
 38 37  2  0  0  0  0
 39 38  1  0  0  0  0
M  END
>  <minimizedAffinity>
-8.8326149

$$$$

 OpenBabel09122221223D

 39 44  0  0  1  0  0  0  0  0999 V2000
    3.6840  -11.1150    1.6370 C   0  0  0  0  0  0  0  0  0  0  0  0
    2.9820   -9.9130    1.5100 C   0  0  0  0  0  3  0  0  0  0  0  0
    3.4480   -8.7590    2.1470 C   0  0  0  0  0  3  0  0  0  0  0  0
    4.5940   -8.7990    2.9480 C   0  0  0  0  0  0  0  0  0  0  0  0
    5.2870   -9.9980    3.0900 C   0  0  0  0  0  3  0  0  0  0  0  0
    4.8290  -11.1430    2.4350 C   0  0  0  0  0  0  0  0  0  0  0  0
    5.5500  -12.2680    2.5510 F   0  0  0  0  0  0  0  0  0  0  0  0
    2.0260  -15.6130   -1.9490 C   0  0  0  0  0  0  0  0  0  0  0  0
    1.7490  -16.2740   -0.7410 C   0  0  0  0  0  3  0  0  0  0  0  0
    1.9560  -15.6700    0.5050 C   0  0  0  0  0  3  0  0  0  0  0  0
    2.4560  -14.3610    0.5160 C   0  0  0  0  0  0  0  0  0  0  0  0
    2.7450  -13.6750   -0.6620 C   0  0  0  0  0  0  0  0  0  0  0  0
    2.5300  -14.2990   -1.9020 C   0  0  0  0  0  3  0  0  0  0  0  0
    3.2380  -12.4220   -0.3900 N   0  0  0  0  0  0  0  0  0  0  0  0
    3.2260  -12.3010    0.9210 C   0  0  0  0  0  0  0  0  0  0  0  0
    2.7870  -13.4730    1.5180 N   0  0  0  0  0  0  0  0  0  0  0  0
    2.7650  -13.7330    2.9560 C   0  0  0  0  0  3  0  0  0  0  0  0
    1.3460  -13.9170    3.5160 C   0  0  0  0  0  2  0  0  0  0  0  0
    1.3740  -14.1300    5.0300 C   0  0  0  0  0  2  0  0  0  0  0  0
    2.2990  -15.2780    5.4240 C   0  0  0  0  0  2  0  0  0  0  0  0
    3.7110  -15.0800    4.8780 C   0  0  0  0  0  2  0  0  0  0  0  0
    3.7040  -14.8800    3.3630 C   0  0  0  0  0  2  0  0  0  0  0  0
    0.5800  -16.4950   -3.6240 O   0  0  0  0  0  1  0  0  0  0  0  0
    1.7900  -16.3060   -3.2770 C   0  0  0  0  0  0  0  0  0  0  0  0
    2.8140  -16.6510   -3.9450 O   0  0  0  0  0  0  0  0  0  0  0  0
    4.9800   -7.5940    3.4620 O   0  0  0  0  0  0  0  0  0  0  0  0
    4.6360   -6.3660    2.7850 C   0  0  1  0  0  3  0  0  0  0  0  0
    4.2680   -5.2490    3.7530 C   0  0  0  0  0  0  0  0  0  0  0  0
    2.9430   -5.1310    4.2040 C   0  0  0  0  0  3  0  0  0  0  0  0
    2.5950   -4.1250    5.1000 C   0  0  0  0  0  3  0  0  0  0  0  0
    3.5840   -3.2550    5.5210 C   0  0  0  0  0  3  0  0  0  0  0  0
    4.8680   -3.3320    5.1150 N   0  0  0  0  0  0  0  0  0  0  0  0
    5.1840   -4.3360    4.2650 C   0  0  0  0  0  3  0  0  0  0  0  0
    5.4930   -6.0390    1.5690 C   0  0  0  0  0  0  0  0  0  0  0  0
    4.9970   -6.1520    0.2610 C   0  0  0  0  0  3  0  0  0  0  0  0
    5.8200   -5.8820   -0.8300 C   0  0  0  0  0  3  0  0  0  0  0  0
    7.1350   -5.5330   -0.5880 C   0  0  0  0  0  3  0  0  0  0  0  0
    7.6700   -5.4590    0.6480 N   0  0  0  0  0  0  0  0  0  0  0  0
    6.8460   -5.7240    1.6890 C   0  0  0  0  0  3  0  0  0  0  0  0
  1  6  1  0  0  0  0
  2  1  2  0  0  0  0
  2  3  1  0  0  0  0
  3  4  2  0  0  0  0
  4  5  1  0  0  0  0
  4 26  1  0  0  0  0
  6  7  1  0  0  0  0
  6  5  2  0  0  0  0
  8 13  2  0  0  0  0
  8  9  1  0  0  0  0
  9 10  2  0  0  0  0
 10 11  1  0  0  0  0
 11 16  1  0  0  0  0
 12 14  1  0  0  0  0
 12 11  2  0  0  0  0
 13 12  1  0  0  0  0
 14 15  2  0  0  0  0
 15 16  1  0  0  0  0
 15  1  1  0  0  0  0
 16 17  1  0  0  0  0
 17 22  1  0  0  0  0
 17 18  1  0  0  0  0
 18 19  1  0  0  0  0
 19 20  1  0  0  0  0
 21 20  1  0  0  0  0
 22 21  1  0  0  0  0
 23 24  1  0  0  0  0
 24  8  1  0  0  0  0
 25 24  2  0  0  0  0
 27 26  1  1  0  0  0
 27 28  1  0  0  0  0
 28 29  2  0  0  0  0
 28 33  1  0  0  0  0
 29 30  1  0  0  0  0
 30 31  2  0  0  0  0
 32 31  1  0  0  0  0
 33 32  2  0  0  0  0
 34 39  1  0  0  0  0
 34 27  1  0  0  0  0
 35 34  2  0  0  0  0
 36 37  2  0  0  0  0
 36 35  1  0  0  0  0
 37 38  1  0  0  0  0
 38 39  2  0  0  0  0
M  END
>  <minimizedAffinity>
-8.53395939

$$$$

 OpenBabel09122221223D

 39 44  0  0  1  0  0  0  0  0999 V2000
    3.3990  -10.8960    2.0430 C   0  0  0  0  0  0  0  0  0  0  0  0
    2.5110   -9.8320    2.2280 C   0  0  0  0  0  3  0  0  0  0  0  0
    2.8810   -8.7390    3.0170 C   0  0  0  0  0  3  0  0  0  0  0  0
    4.1220   -8.7120    3.6620 C   0  0  0  0  0  0  0  0  0  0  0  0
    5.0030   -9.7760    3.4940 C   0  0  0  0  0  3  0  0  0  0  0  0
    4.6370  -10.8560    2.6880 C   0  0  0  0  0  0  0  0  0  0  0  0
    5.5300  -11.8400    2.5050 F   0  0  0  0  0  0  0  0  0  0  0  0
    2.0070  -14.9560   -2.1300 C   0  0  0  0  0  0  0  0  0  0  0  0
    1.9110  -15.8280   -1.0340 C   0  0  0  0  0  3  0  0  0  0  0  0
    2.1460  -15.4050    0.2810 C   0  0  0  0  0  3  0  0  0  0  0  0
    2.4830  -14.0600    0.4770 C   0  0  0  0  0  0  0  0  0  0  0  0
    2.5900  -13.1660   -0.5860 C   0  0  0  0  0  0  0  0  0  0  0  0
    2.3510  -13.6100   -1.8970 C   0  0  0  0  0  3  0  0  0  0  0  0
    2.9490  -11.9160   -0.1410 N   0  0  0  0  0  0  0  0  0  0  0  0
    3.0300  -12.0050    1.1710 C   0  0  0  0  0  0  0  0  0  0  0  0
    2.7870  -13.3030    1.5910 N   0  0  0  0  0  0  0  0  0  0  0  0
    2.9140  -13.7860    2.9640 C   0  0  0  0  0  3  0  0  0  0  0  0
    1.6110  -14.3800    3.5200 C   0  0  0  0  0  2  0  0  0  0  0  0
    1.7810  -14.8180    4.9750 C   0  0  0  0  0  2  0  0  0  0  0  0
    2.9630  -15.7680    5.1460 C   0  0  0  0  0  2  0  0  0  0  0  0
    4.2570  -15.1640    4.6070 C   0  0  0  0  0  2  0  0  0  0  0  0
    4.1100  -14.7340    3.1490 C   0  0  0  0  0  2  0  0  0  0  0  0
    1.9490  -14.6370   -4.4900 O   0  0  0  0  0  0  0  0  0  0  0  0
    1.7480  -15.4570   -3.5370 C   0  0  0  0  0  0  0  0  0  0  0  0
    1.3470  -16.6560   -3.6660 O   0  0  0  0  0  1  0  0  0  0  0  0
    4.3890   -7.5630    4.3500 O   0  0  0  0  0  0  0  0  0  0  0  0
    4.7100   -6.3450    3.6430 C   0  0  1  0  0  3  0  0  0  0  0  0
    5.1360   -6.6010    2.2040 C   0  0  0  0  0  0  0  0  0  0  0  0
    4.2330   -6.3510    1.1580 C   0  0  0  0  0  3  0  0  0  0  0  0
    4.6140   -6.5670   -0.1630 C   0  0  0  0  0  3  0  0  0  0  0  0
    5.8930   -7.0320   -0.4060 C   0  0  0  0  0  3  0  0  0  0  0  0
    6.7930   -7.2840    0.5660 N   0  0  0  0  0  0  0  0  0  0  0  0
    6.4050   -7.0400    1.8400 C   0  0  0  0  0  3  0  0  0  0  0  0
    3.7950   -5.1650    3.9460 C   0  0  0  0  0  0  0  0  0  0  0  0
    4.1810   -3.8420    3.6830 C   0  0  0  0  0  3  0  0  0  0  0  0
    3.3350   -2.7830    4.0070 C   0  0  0  0  0  3  0  0  0  0  0  0
    2.1300   -3.0730    4.6190 C   0  0  0  0  0  3  0  0  0  0  0  0
    1.7370   -4.3230    4.9360 N   0  0  0  0  0  0  0  0  0  0  0  0
    2.5780   -5.3320    4.6060 C   0  0  0  0  0  3  0  0  0  0  0  0
  1  2  2  0  0  0  0
  1  6  1  0  0  0  0
  2  3  1  0  0  0  0
  3  4  2  0  0  0  0
  4 26  1  0  0  0  0
  5  4  1  0  0  0  0
  6  5  2  0  0  0  0
  7  6  1  0  0  0  0
  8 13  2  0  0  0  0
  8  9  1  0  0  0  0
  9 10  2  0  0  0  0
 10 11  1  0  0  0  0
 11 16  1  0  0  0  0
 12 14  1  0  0  0  0
 12 11  2  0  0  0  0
 13 12  1  0  0  0  0
 14 15  2  0  0  0  0
 15 16  1  0  0  0  0
 15  1  1  0  0  0  0
 16 17  1  0  0  0  0
 17 22  1  0  0  0  0
 17 18  1  0  0  0  0
 18 19  1  0  0  0  0
 19 20  1  0  0  0  0
 21 20  1  0  0  0  0
 22 21  1  0  0  0  0
 23 24  2  0  0  0  0
 24  8  1  0  0  0  0
 25 24  1  0  0  0  0
 27 34  1  0  0  0  0
 27 26  1  6  0  0  0
 28 27  1  0  0  0  0
 29 28  2  0  0  0  0
 30 29  1  0  0  0  0
 31 30  2  0  0  0  0
 31 32  1  0  0  0  0
 32 33  2  0  0  0  0
 33 28  1  0  0  0  0
 34 39  1  0  0  0  0
 35 34  2  0  0  0  0
 35 36  1  0  0  0  0
 36 37  2  0  0  0  0
 37 38  1  0  0  0  0
 39 38  2  0  0  0  0
M  END
>  <minimizedAffinity>
-8.50747967

$$$$
