
 OpenBabel09122222393D

 39 44  0  0  1  0  0  0  0  0999 V2000
    5.5050   -7.2680    1.2770 C   0  0  0  0  0  0  0  0  0  0  0  0
    4.3610   -7.2360    0.4750 C   0  0  0  0  0  3  0  0  0  0  0  0
    3.3850   -8.2280    0.6050 C   0  0  0  0  0  3  0  0  0  0  0  0
    3.5570   -9.2840    1.5060 C   0  0  0  0  0  0  0  0  0  0  0  0
    4.7020   -9.3300    2.2950 C   0  0  0  0  0  3  0  0  0  0  0  0
    5.6640   -8.3250    2.1770 C   0  0  0  0  0  0  0  0  0  0  0  0
    6.7300   -8.3710    2.9900 F   0  0  0  0  0  0  0  0  0  0  0  0
    9.7750   -3.2100    0.2120 C   0  0  0  0  0  0  0  0  0  0  0  0
    9.2600   -2.5880    1.3600 C   0  0  0  0  0  3  0  0  0  0  0  0
    8.1820   -3.1210    2.0790 C   0  0  0  0  0  3  0  0  0  0  0  0
    7.6230   -4.3180    1.6140 C   0  0  0  0  0  0  0  0  0  0  0  0
    8.1060   -4.9630    0.4770 C   0  0  0  0  0  0  0  0  0  0  0  0
    9.1870   -4.4110   -0.2300 C   0  0  0  0  0  3  0  0  0  0  0  0
    7.3830   -6.1010    0.2150 N   0  0  0  0  0  0  0  0  0  0  0  0
    6.4910   -6.1980    1.1800 C   0  0  0  0  0  0  0  0  0  0  0  0
    6.5780   -5.1130    2.0390 N   0  0  0  0  0  0  0  0  0  0  0  0
    5.6650   -4.8350    3.1450 C   0  0  0  0  0  3  0  0  0  0  0  0
    6.2780   -3.9270    4.2220 C   0  0  0  0  0  2  0  0  0  0  0  0
    5.3040   -3.7130    5.3820 C   0  0  0  0  0  2  0  0  0  0  0  0
    3.9520   -3.1960    4.8980 C   0  0  0  0  0  2  0  0  0  0  0  0
    3.3420   -4.1110    3.8400 C   0  0  0  0  0  2  0  0  0  0  0  0
    4.2950   -4.3260    2.6660 C   0  0  0  0  0  2  0  0  0  0  0  0
   12.1080   -2.8340   -0.0900 O   0  0  0  0  0  1  0  0  0  0  0  0
   10.9410   -2.5960   -0.5390 C   0  0  0  0  0  0  0  0  0  0  0  0
   10.6700   -1.8870   -1.5580 O   0  0  0  0  0  0  0  0  0  0  0  0
    2.5050  -10.1520    1.5840 O   0  0  0  0  0  0  0  0  0  0  0  0
    2.7320  -11.5520    1.8610 C   0  0  1  0  0  3  0  0  0  0  0  0
    1.9590  -12.0380    3.0800 C   0  0  0  0  0  0  0  0  0  0  0  0
    2.6080  -12.8240    4.0450 C   0  0  0  0  0  3  0  0  0  0  0  0
    1.9190  -13.2640    5.1700 C   0  0  0  0  0  3  0  0  0  0  0  0
    0.5890  -12.9080    5.3020 C   0  0  0  0  0  3  0  0  0  0  0  0
   -0.0740  -12.1550    4.4010 N   0  0  0  0  0  0  0  0  0  0  0  0
    0.6280  -11.7190    3.3300 C   0  0  0  0  0  3  0  0  0  0  0  0
    2.8140  -12.4460    0.6300 C   0  0  0  0  0  0  0  0  0  0  0  0
    3.7860  -13.4500    0.5080 C   0  0  0  0  0  3  0  0  0  0  0  0
    3.8580  -14.2250   -0.6470 C   0  0  0  0  0  3  0  0  0  0  0  0
    2.9700  -13.9560   -1.6720 C   0  0  0  0  0  3  0  0  0  0  0  0
    2.0510  -12.9710   -1.6210 N   0  0  0  0  0  0  0  0  0  0  0  0
    2.0030  -12.2350   -0.4840 C   0  0  0  0  0  3  0  0  0  0  0  0
  1  6  1  0  0  0  0
  2  3  1  0  0  0  0
  2  1  2  0  0  0  0
  3  4  2  0  0  0  0
  4 26  1  0  0  0  0
  4  5  1  0  0  0  0
  6  5  2  0  0  0  0
  6  7  1  0  0  0  0
  8  9  1  0  0  0  0
  9 10  2  0  0  0  0
 11 16  1  0  0  0  0
 11 10  1  0  0  0  0
 12 11  2  0  0  0  0
 13  8  2  0  0  0  0
 13 12  1  0  0  0  0
 14 12  1  0  0  0  0
 14 15  2  0  0  0  0
 15  1  1  0  0  0  0
 15 16  1  0  0  0  0
 16 17  1  0  0  0  0
 17 18  1  0  0  0  0
 18 19  1  0  0  0  0
 20 19  1  0  0  0  0
 21 20  1  0  0  0  0
 22 17  1  0  0  0  0
 22 21  1  0  0  0  0
 24 23  1  0  0  0  0
 24  8  1  0  0  0  0
 25 24  2  0  0  0  0
 27 26  1  6  0  0  0
 27 28  1  0  0  0  0
 28 33  2  0  0  0  0
 28 29  1  0  0  0  0
 29 30  2  0  0  0  0
 30 31  1  0  0  0  0
 32 31  2  0  0  0  0
 33 32  1  0  0  0  0
 34 27  1  0  0  0  0
 35 34  1  0  0  0  0
 36 35  2  0  0  0  0
 37 38  2  0  0  0  0
 37 36  1  0  0  0  0
 38 39  1  0  0  0  0
 39 34  2  0  0  0  0
M  END
>  <minimizedAffinity>
-9.11549091

$$$$
