
 OpenBabel09122222393D

 39 44  0  0  1  0  0  0  0  0999 V2000
    6.4060   -6.5540    0.6430 C   0  0  0  0  0  0  0  0  0  0  0  0
    7.6490   -6.4540    1.2750 C   0  0  0  0  0  3  0  0  0  0  0  0
    8.6290   -5.6000    0.7610 C   0  0  0  0  0  3  0  0  0  0  0  0
    8.3970   -4.8680   -0.4070 C   0  0  0  0  0  0  0  0  0  0  0  0
    7.1670   -4.9770   -1.0490 C   0  0  0  0  0  3  0  0  0  0  0  0
    6.1830   -5.8150   -0.5200 C   0  0  0  0  0  0  0  0  0  0  0  0
    4.9910   -5.8570   -1.1340 F   0  0  0  0  0  0  0  0  0  0  0  0
    2.3560  -10.5630    2.4770 C   0  0  0  0  0  0  0  0  0  0  0  0
    2.0790   -9.6070    3.4670 C   0  0  0  0  0  3  0  0  0  0  0  0
    2.7640   -8.3860    3.5380 C   0  0  0  0  0  3  0  0  0  0  0  0
    3.7500   -8.1400    2.5750 C   0  0  0  0  0  0  0  0  0  0  0  0
    4.0540   -9.0660    1.5800 C   0  0  0  0  0  0  0  0  0  0  0  0
    3.3570  -10.2840    1.5260 C   0  0  0  0  0  3  0  0  0  0  0  0
    5.0640   -8.6030    0.7720 N   0  0  0  0  0  0  0  0  0  0  0  0
    5.3670   -7.4010    1.2180 C   0  0  0  0  0  0  0  0  0  0  0  0
    4.6130   -7.0890    2.3380 N   0  0  0  0  0  0  0  0  0  0  0  0
    4.7740   -5.8910    3.1590 C   0  0  0  0  0  3  0  0  0  0  0  0
    4.2310   -4.6200    2.4880 C   0  0  0  0  0  2  0  0  0  0  0  0
    4.4730   -3.3880    3.3620 C   0  0  0  0  0  2  0  0  0  0  0  0
    3.9170   -3.5750    4.7710 C   0  0  0  0  0  2  0  0  0  0  0  0
    4.4740   -4.8310    5.4370 C   0  0  0  0  0  2  0  0  0  0  0  0
    4.2280   -6.0740    4.5850 C   0  0  0  0  0  2  0  0  0  0  0  0
    0.3370  -11.8180    2.6330 O   0  0  0  0  0  1  0  0  0  0  0  0
    1.5940  -11.8740    2.4390 C   0  0  0  0  0  0  0  0  0  0  0  0
    2.2630  -12.9320    2.2210 O   0  0  0  0  0  0  0  0  0  0  0  0
    9.4080   -4.0230   -0.7700 O   0  0  0  0  0  0  0  0  0  0  0  0
   10.3890   -3.5980    0.2010 C   0  0  1  0  0  3  0  0  0  0  0  0
   11.7920   -3.5160   -0.3850 C   0  0  0  0  0  0  0  0  0  0  0  0
   11.9580   -3.4100   -1.7750 C   0  0  0  0  0  3  0  0  0  0  0  0
   13.2340   -3.3200   -2.3240 C   0  0  0  0  0  3  0  0  0  0  0  0
   14.3170   -3.3410   -1.4650 C   0  0  0  0  0  3  0  0  0  0  0  0
   14.2050   -3.4400   -0.1240 N   0  0  0  0  0  0  0  0  0  0  0  0
   12.9510   -3.4990    0.3840 C   0  0  0  0  0  3  0  0  0  0  0  0
    9.9200   -2.5080    1.1560 C   0  0  0  0  0  0  0  0  0  0  0  0
    9.5450   -1.2360    0.7000 C   0  0  0  0  0  3  0  0  0  0  0  0
    9.1560   -0.2490    1.6040 C   0  0  0  0  0  3  0  0  0  0  0  0
    9.1810   -0.5510    2.9530 C   0  0  0  0  0  3  0  0  0  0  0  0
    9.5800   -1.7430    3.4420 N   0  0  0  0  0  0  0  0  0  0  0  0
    9.9490   -2.6830    2.5390 C   0  0  0  0  0  3  0  0  0  0  0  0
  1 15  1  0  0  0  0
  1  2  1  0  0  0  0
  3  2  2  0  0  0  0
  4  3  1  0  0  0  0
  5  6  1  0  0  0  0
  5  4  2  0  0  0  0
  6  1  2  0  0  0  0
  7  6  1  0  0  0  0
  8  9  1  0  0  0  0
  9 10  2  0  0  0  0
 11 10  1  0  0  0  0
 12 11  2  0  0  0  0
 13 12  1  0  0  0  0
 13  8  2  0  0  0  0
 14 15  2  0  0  0  0
 14 12  1  0  0  0  0
 15 16  1  0  0  0  0
 16 11  1  0  0  0  0
 16 17  1  0  0  0  0
 17 22  1  0  0  0  0
 18 17  1  0  0  0  0
 18 19  1  0  0  0  0
 19 20  1  0  0  0  0
 20 21  1  0  0  0  0
 22 21  1  0  0  0  0
 24  8  1  0  0  0  0
 24 23  1  0  0  0  0
 25 24  2  0  0  0  0
 26  4  1  0  0  0  0
 27 26  1  6  0  0  0
 27 34  1  0  0  0  0
 28 27  1  0  0  0  0
 28 33  1  0  0  0  0
 29 28  2  0  0  0  0
 30 29  1  0  0  0  0
 30 31  2  0  0  0  0
 31 32  1  0  0  0  0
 32 33  2  0  0  0  0
 34 39  1  0  0  0  0
 35 34  2  0  0  0  0
 35 36  1  0  0  0  0
 36 37  2  0  0  0  0
 37 38  1  0  0  0  0
 39 38  2  0  0  0  0
M  END
>  <minimizedAffinity>
-10.2692289

$$$$
