
 OpenBabel09122222393D

 39 44  0  0  1  0  0  0  0  0999 V2000
    5.6800   -7.3400    1.5670 C   0  0  0  0  0  0  0  0  0  0  0  0
    5.9420   -8.3070    2.5420 C   0  0  0  0  0  3  0  0  0  0  0  0
    5.1020   -9.4170    2.6720 C   0  0  0  0  0  3  0  0  0  0  0  0
    3.9720   -9.5550    1.8600 C   0  0  0  0  0  0  0  0  0  0  0  0
    3.6980   -8.5870    0.8990 C   0  0  0  0  0  3  0  0  0  0  0  0
    4.5510   -7.4910    0.7590 C   0  0  0  0  0  0  0  0  0  0  0  0
    4.2870   -6.6040   -0.2120 F   0  0  0  0  0  0  0  0  0  0  0  0
    9.6820   -3.0940    0.2280 C   0  0  0  0  0  0  0  0  0  0  0  0
    9.1120   -2.4230    1.3220 C   0  0  0  0  0  3  0  0  0  0  0  0
    8.0640   -2.9730    2.0720 C   0  0  0  0  0  3  0  0  0  0  0  0
    7.5910   -4.2360    1.6940 C   0  0  0  0  0  0  0  0  0  0  0  0
    8.1300   -4.9300    0.6130 C   0  0  0  0  0  0  0  0  0  0  0  0
    9.1800   -4.3610   -0.1260 C   0  0  0  0  0  3  0  0  0  0  0  0
    7.4880   -6.1310    0.4330 N   0  0  0  0  0  0  0  0  0  0  0  0
    6.5930   -6.2150    1.3960 C   0  0  0  0  0  0  0  0  0  0  0  0
    6.5970   -5.0660    2.1710 N   0  0  0  0  0  0  0  0  0  0  0  0
    5.6540   -4.7690    3.2470 C   0  0  0  0  0  3  0  0  0  0  0  0
    6.2380   -3.8420    4.3250 C   0  0  0  0  0  2  0  0  0  0  0  0
    5.2330   -3.6070    5.4530 C   0  0  0  0  0  2  0  0  0  0  0  0
    3.8950   -3.0980    4.9230 C   0  0  0  0  0  2  0  0  0  0  0  0
    3.3130   -4.0320    3.8650 C   0  0  0  0  0  2  0  0  0  0  0  0
    4.2990   -4.2670    2.7210 C   0  0  0  0  0  2  0  0  0  0  0  0
   12.0000   -2.7550   -0.2060 O   0  0  0  0  0  1  0  0  0  0  0  0
   10.8130   -2.4600   -0.5590 C   0  0  0  0  0  0  0  0  0  0  0  0
   10.4960   -1.6790   -1.5100 O   0  0  0  0  0  0  0  0  0  0  0  0
    3.2700  -10.7130    2.0420 O   0  0  0  0  0  0  0  0  0  0  0  0
    3.8820  -11.9910    1.7630 C   0  0  1  0  0  3  0  0  0  0  0  0
    4.0930  -12.8250    3.0200 C   0  0  0  0  0  0  0  0  0  0  0  0
    5.3910  -13.2220    3.3780 C   0  0  0  0  0  3  0  0  0  0  0  0
    5.6010  -13.9710    4.5320 C   0  0  0  0  0  3  0  0  0  0  0  0
    4.5020  -14.3100    5.3000 C   0  0  0  0  0  3  0  0  0  0  0  0
    3.2390  -13.9490    4.9940 N   0  0  0  0  0  0  0  0  0  0  0  0
    3.0670  -13.1980    3.8810 C   0  0  0  0  0  3  0  0  0  0  0  0
    3.3910  -12.6760    0.4930 C   0  0  0  0  0  0  0  0  0  0  0  0
    3.9630  -13.8690    0.0270 C   0  0  0  0  0  3  0  0  0  0  0  0
    3.5160  -14.4490   -1.1580 C   0  0  0  0  0  3  0  0  0  0  0  0
    2.5220  -13.8020   -1.8690 C   0  0  0  0  0  3  0  0  0  0  0  0
    1.9770  -12.6300   -1.4870 N   0  0  0  0  0  0  0  0  0  0  0  0
    2.4300  -12.0910   -0.3290 C   0  0  0  0  0  3  0  0  0  0  0  0
  1  2  1  0  0  0  0
  2  3  2  0  0  0  0
  4 26  1  0  0  0  0
  4  3  1  0  0  0  0
  5  4  2  0  0  0  0
  6  5  1  0  0  0  0
  6  1  2  0  0  0  0
  7  6  1  0  0  0  0
  8  9  1  0  0  0  0
  9 10  2  0  0  0  0
 11 10  1  0  0  0  0
 11 16  1  0  0  0  0
 12 11  2  0  0  0  0
 13  8  2  0  0  0  0
 13 12  1  0  0  0  0
 14 12  1  0  0  0  0
 14 15  2  0  0  0  0
 15  1  1  0  0  0  0
 15 16  1  0  0  0  0
 16 17  1  0  0  0  0
 17 18  1  0  0  0  0
 18 19  1  0  0  0  0
 20 19  1  0  0  0  0
 21 20  1  0  0  0  0
 22 17  1  0  0  0  0
 22 21  1  0  0  0  0
 24 23  1  0  0  0  0
 24  8  1  0  0  0  0
 25 24  2  0  0  0  0
 27 26  1  1  0  0  0
 27 28  1  0  0  0  0
 28 29  2  0  0  0  0
 28 33  1  0  0  0  0
 29 30  1  0  0  0  0
 30 31  2  0  0  0  0
 32 31  1  0  0  0  0
 33 32  2  0  0  0  0
 34 27  1  0  0  0  0
 35 34  1  0  0  0  0
 36 35  2  0  0  0  0
 37 38  2  0  0  0  0
 37 36  1  0  0  0  0
 38 39  1  0  0  0  0
 39 34  2  0  0  0  0
M  END
>  <minimizedAffinity>
-9.82217598

$$$$
