
 OpenBabel09122222393D

 39 44  0  0  1  0  0  0  0  0999 V2000
    5.6210   -7.2850    1.5120 C   0  0  0  0  0  0  0  0  0  0  0  0
    5.8570   -8.2690    2.4770 C   0  0  0  0  0  3  0  0  0  0  0  0
    4.9880   -9.3560    2.5980 C   0  0  0  0  0  3  0  0  0  0  0  0
    3.8530   -9.4560    1.7870 C   0  0  0  0  0  0  0  0  0  0  0  0
    3.6040   -8.4710    0.8360 C   0  0  0  0  0  3  0  0  0  0  0  0
    4.4870   -7.3970    0.7050 C   0  0  0  0  0  0  0  0  0  0  0  0
    4.2460   -6.4930   -0.2570 F   0  0  0  0  0  0  0  0  0  0  0  0
    9.7310   -3.1350    0.2040 C   0  0  0  0  0  0  0  0  0  0  0  0
    9.1910   -2.4660    1.3140 C   0  0  0  0  0  3  0  0  0  0  0  0
    8.1340   -2.9970    2.0640 C   0  0  0  0  0  3  0  0  0  0  0  0
    7.6220   -4.2400    1.6710 C   0  0  0  0  0  0  0  0  0  0  0  0
    8.1300   -4.9320    0.5740 C   0  0  0  0  0  0  0  0  0  0  0  0
    9.1900   -4.3820   -0.1660 C   0  0  0  0  0  3  0  0  0  0  0  0
    7.4530   -6.1110    0.3810 N   0  0  0  0  0  0  0  0  0  0  0  0
    6.5640   -6.1850    1.3510 C   0  0  0  0  0  0  0  0  0  0  0  0
    6.6080   -5.0490    2.1440 N   0  0  0  0  0  0  0  0  0  0  0  0
    5.6840   -4.7420    3.2330 C   0  0  0  0  0  3  0  0  0  0  0  0
    6.2880   -3.8120    4.2960 C   0  0  0  0  0  2  0  0  0  0  0  0
    5.3020   -3.5660    5.4390 C   0  0  0  0  0  2  0  0  0  0  0  0
    3.9580   -3.0550    4.9280 C   0  0  0  0  0  2  0  0  0  0  0  0
    3.3560   -3.9930    3.8840 C   0  0  0  0  0  2  0  0  0  0  0  0
    4.3220   -4.2380    2.7260 C   0  0  0  0  0  2  0  0  0  0  0  0
   12.0530   -2.7420   -0.1590 O   0  0  0  0  0  1  0  0  0  0  0  0
   10.8730   -2.5210   -0.5840 C   0  0  0  0  0  0  0  0  0  0  0  0
   10.5710   -1.8290   -1.6060 O   0  0  0  0  0  0  0  0  0  0  0  0
    3.1190  -10.5950    1.9590 O   0  0  0  0  0  0  0  0  0  0  0  0
    2.8350  -11.0890    3.2870 C   0  0  1  0  0  3  0  0  0  0  0  0
    1.4290  -10.7340    3.7530 C   0  0  0  0  0  0  0  0  0  0  0  0
    1.2280   -9.5890    4.5400 C   0  0  0  0  0  3  0  0  0  0  0  0
   -0.0520   -9.2440    4.9620 C   0  0  0  0  0  3  0  0  0  0  0  0
   -1.1050  -10.0590    4.5870 C   0  0  0  0  0  3  0  0  0  0  0  0
   -0.9580  -11.1660    3.8310 N   0  0  0  0  0  0  0  0  0  0  0  0
    0.2950  -11.4630    3.4130 C   0  0  0  0  0  3  0  0  0  0  0  0
    3.3880  -12.4750    3.5900 C   0  0  0  0  0  0  0  0  0  0  0  0
    3.2520  -13.0670    4.8540 C   0  0  0  0  0  3  0  0  0  0  0  0
    3.8030  -14.3210    5.1090 C   0  0  0  0  0  3  0  0  0  0  0  0
    4.5080  -14.9440    4.0960 C   0  0  0  0  0  3  0  0  0  0  0  0
    4.7070  -14.3950    2.8810 N   0  0  0  0  0  0  0  0  0  0  0  0
    4.1570  -13.1760    2.6620 C   0  0  0  0  0  3  0  0  0  0  0  0
  1  2  1  0  0  0  0
  2  3  2  0  0  0  0
  4 26  1  0  0  0  0
  4  3  1  0  0  0  0
  5  4  2  0  0  0  0
  6  5  1  0  0  0  0
  6  1  2  0  0  0  0
  7  6  1  0  0  0  0
  8  9  1  0  0  0  0
  9 10  2  0  0  0  0
 11 10  1  0  0  0  0
 11 16  1  0  0  0  0
 12 11  2  0  0  0  0
 13  8  2  0  0  0  0
 13 12  1  0  0  0  0
 14 12  1  0  0  0  0
 14 15  2  0  0  0  0
 15  1  1  0  0  0  0
 15 16  1  0  0  0  0
 16 17  1  0  0  0  0
 17 18  1  0  0  0  0
 18 19  1  0  0  0  0
 20 19  1  0  0  0  0
 21 20  1  0  0  0  0
 22 17  1  0  0  0  0
 22 21  1  0  0  0  0
 24 23  1  0  0  0  0
 24  8  1  0  0  0  0
 25 24  2  0  0  0  0
 27 26  1  6  0  0  0
 27 34  1  0  0  0  0
 27 28  1  0  0  0  0
 28 29  1  0  0  0  0
 29 30  2  0  0  0  0
 31 30  1  0  0  0  0
 32 31  2  0  0  0  0
 33 28  2  0  0  0  0
 33 32  1  0  0  0  0
 34 35  1  0  0  0  0
 35 36  2  0  0  0  0
 37 36  1  0  0  0  0
 38 37  2  0  0  0  0
 39 38  1  0  0  0  0
 39 34  2  0  0  0  0
M  END
>  <minimizedAffinity>
-9.05163383

$$$$
