
 OpenBabel09122222393D

 39 44  0  0  1  0  0  0  0  0999 V2000
    4.9480   -7.6160    1.9840 C   0  0  0  0  0  0  0  0  0  0  0  0
    4.9310   -8.2820    3.2130 C   0  0  0  0  0  3  0  0  0  0  0  0
    4.0000   -9.2970    3.4470 C   0  0  0  0  0  3  0  0  0  0  0  0
    3.0510   -9.6340    2.4770 C   0  0  0  0  0  0  0  0  0  0  0  0
    3.0530   -8.9630    1.2570 C   0  0  0  0  0  3  0  0  0  0  0  0
    3.9990   -7.9630    1.0200 C   0  0  0  0  0  0  0  0  0  0  0  0
    4.0070   -7.3730   -0.1850 F   0  0  0  0  0  0  0  0  0  0  0  0
    9.3150   -3.8810    0.3050 C   0  0  0  0  0  0  0  0  0  0  0  0
    8.8240   -3.0790    1.3480 C   0  0  0  0  0  3  0  0  0  0  0  0
    7.7370   -3.4690    2.1420 C   0  0  0  0  0  3  0  0  0  0  0  0
    7.1440   -4.7070    1.8640 C   0  0  0  0  0  0  0  0  0  0  0  0
    7.6020   -5.5280    0.8370 C   0  0  0  0  0  0  0  0  0  0  0  0
    8.6920   -5.1190    0.0520 C   0  0  0  0  0  3  0  0  0  0  0  0
    6.8480   -6.6730    0.7520 N   0  0  0  0  0  0  0  0  0  0  0  0
    5.9610   -6.5990    1.7230 C   0  0  0  0  0  0  0  0  0  0  0  0
    6.0820   -5.4000    2.4080 N   0  0  0  0  0  0  0  0  0  0  0  0
    5.1830   -4.9340    3.4620 C   0  0  0  0  0  3  0  0  0  0  0  0
    5.8970   -4.1100    4.5450 C   0  0  0  0  0  2  0  0  0  0  0  0
    4.9260   -3.6940    5.6500 C   0  0  0  0  0  2  0  0  0  0  0  0
    3.7050   -2.9690    5.0900 C   0  0  0  0  0  2  0  0  0  0  0  0
    2.9920   -3.8010    4.0260 C   0  0  0  0  0  2  0  0  0  0  0  0
    3.9440   -4.2140    2.9050 C   0  0  0  0  0  2  0  0  0  0  0  0
   10.3760   -2.2950   -1.1190 O   0  0  0  0  0  0  0  0  0  0  0  0
   10.4910   -3.4190   -0.5330 C   0  0  0  0  0  0  0  0  0  0  0  0
   11.5020   -4.1860   -0.5930 O   0  0  0  0  0  1  0  0  0  0  0  0
    2.2390  -10.6830    2.8020 O   0  0  0  0  0  0  0  0  0  0  0  0
    2.6530  -12.0400    2.5280 C   0  0  1  0  0  3  0  0  0  0  0  0
    2.7460  -12.3310    1.0360 C   0  0  0  0  0  0  0  0  0  0  0  0
    4.0060  -12.4890    0.4370 C   0  0  0  0  0  3  0  0  0  0  0  0
    4.1060  -12.7700   -0.9220 C   0  0  0  0  0  3  0  0  0  0  0  0
    2.9380  -12.8830   -1.6530 C   0  0  0  0  0  3  0  0  0  0  0  0
    1.7070  -12.7400   -1.1200 N   0  0  0  0  0  0  0  0  0  0  0  0
    1.6390  -12.4940    0.2100 C   0  0  0  0  0  3  0  0  0  0  0  0
    3.7300  -12.5840    3.4580 C   0  0  0  0  0  0  0  0  0  0  0  0
    3.4840  -12.8200    4.8180 C   0  0  0  0  0  3  0  0  0  0  0  0
    4.5020  -13.2830    5.6490 C   0  0  0  0  0  3  0  0  0  0  0  0
    5.7570  -13.4710    5.1030 C   0  0  0  0  0  3  0  0  0  0  0  0
    6.0550  -13.2130    3.8130 N   0  0  0  0  0  0  0  0  0  0  0  0
    5.0440  -12.7660    3.0290 C   0  0  0  0  0  3  0  0  0  0  0  0
  1  2  1  0  0  0  0
  2  3  2  0  0  0  0
  4 26  1  0  0  0  0
  4  3  1  0  0  0  0
  5  4  2  0  0  0  0
  6  5  1  0  0  0  0
  6  1  2  0  0  0  0
  7  6  1  0  0  0  0
  8  9  1  0  0  0  0
  9 10  2  0  0  0  0
 11 10  1  0  0  0  0
 11 16  1  0  0  0  0
 12 11  2  0  0  0  0
 13  8  2  0  0  0  0
 13 12  1  0  0  0  0
 14 12  1  0  0  0  0
 14 15  2  0  0  0  0
 15  1  1  0  0  0  0
 15 16  1  0  0  0  0
 16 17  1  0  0  0  0
 17 18  1  0  0  0  0
 18 19  1  0  0  0  0
 20 19  1  0  0  0  0
 21 20  1  0  0  0  0
 22 17  1  0  0  0  0
 22 21  1  0  0  0  0
 23 24  2  0  0  0  0
 24  8  1  0  0  0  0
 25 24  1  0  0  0  0
 27 26  1  6  0  0  0
 27 34  1  0  0  0  0
 28 27  1  0  0  0  0
 29 28  1  0  0  0  0
 30 29  2  0  0  0  0
 31 32  2  0  0  0  0
 31 30  1  0  0  0  0
 32 33  1  0  0  0  0
 33 28  2  0  0  0  0
 34 35  1  0  0  0  0
 35 36  2  0  0  0  0
 37 36  1  0  0  0  0
 38 37  2  0  0  0  0
 39 34  2  0  0  0  0
 39 38  1  0  0  0  0
M  END
>  <minimizedAffinity>
-9.12469387

$$$$
