
 OpenBabel08152221323D

 33 36  0  0  0  0  0  0  0  0999 V2000
   18.6720    9.2940    6.2020 C   0  0  0  0  0  0  0  0  0  0  0  0
   17.7520    9.9340    5.3800 C   0  0  0  0  0  0  0  0  0  0  0  0
   17.5110   11.1940    5.8600 O   0  0  0  0  0  0  0  0  0  0  0  0
   18.2950   11.3790    6.9490 C   0  0  0  0  0  0  0  0  0  0  0  0
   18.3620   12.5410    7.7030 C   0  0  0  0  0  3  0  0  0  0  0  0
   19.2610   12.5530    8.7850 C   0  0  0  0  0  0  0  0  0  0  0  0
   20.0890   11.4430    9.0980 C   0  0  0  0  0  0  0  0  0  0  0  0
   19.9570   10.2930    8.2770 C   0  0  0  0  0  3  0  0  0  0  0  0
   19.0450   10.2480    7.2030 C   0  0  0  0  0  0  0  0  0  0  0  0
   16.9910    9.5830    4.1810 C   0  0  0  0  0  0  0  0  0  0  0  0
   16.0330   10.4740    3.6630 C   0  0  0  0  0  3  0  0  0  0  0  0
   15.2980   10.1570    2.5180 C   0  0  0  0  0  3  0  0  0  0  0  0
   15.5130    8.9420    1.8830 C   0  0  0  0  0  0  0  0  0  0  0  0
   14.8090    8.6350    0.7860 F   0  0  0  0  0  0  0  0  0  0  0  0
   16.4480    8.0410    2.3730 C   0  0  0  0  0  3  0  0  0  0  0  0
   17.1840    8.3590    3.5190 C   0  0  0  0  0  3  0  0  0  0  0  0
   20.5100    8.6870    3.9610 C   0  0  0  0  0  1  0  0  0  0  0  0
   19.9810    7.7280    4.9030 N   0  0  0  0  0  0  0  0  0  0  0  0
   19.1930    7.9610    6.0020 C   0  0  0  0  0  0  0  0  0  0  0  0
   18.9690    7.0420    6.7840 O   0  0  0  0  0  0  0  0  0  0  0  0
   20.2650    6.7600    4.8170 H   0  0  0  0  0  0  0  0  0  0  0  0
   21.1000   11.4730   10.2380 C   0  0  0  0  0  3  0  0  0  0  0  0
   20.9810   10.4380   11.3370 C   0  0  0  0  0  2  0  0  0  0  0  0
   22.1820   10.4350   10.4450 C   0  0  0  0  0  2  0  0  0  0  0  0
   19.3170   13.8160    9.4750 N   0  0  0  0  0  0  0  0  0  0  0  0
   20.0200   15.1610    8.7400 S   0  0  0  0  0  0  0  0  0  0  0  0
   18.6380   16.1400    8.1840 C   0  0  0  0  0  1  0  0  0  0  0  0
   20.7550   15.9170    9.7300 O   0  0  0  0  0  0  0  0  0  0  0  0
   20.7050   14.6590    7.5630 O   0  0  0  0  0  0  0  0  0  0  0  0
   18.2310   14.0850   10.4650 C   0  0  0  0  0  2  0  0  0  0  0  0
   17.9790   12.8460   11.3290 C   0  0  0  0  0  2  0  0  0  0  0  0
   16.6820   12.2970   11.1250 O   0  0  0  0  0  0  0  0  0  0  0  0
   16.0260   13.0240   11.2040 H   0  0  0  0  0  0  0  0  0  0  0  0
  1  9  1  0  0  0  0
  2  3  1  0  0  0  0
  2  1  2  0  0  0  0
  3  4  1  0  0  0  0
  4  9  2  0  0  0  0
  4  5  1  0  0  0  0
  5  6  2  0  0  0  0
  6  7  1  0  0  0  0
  6 25  1  0  0  0  0
  7 22  1  0  0  0  0
  8  7  2  0  0  0  0
  9  8  1  0  0  0  0
 10  2  1  0  0  0  0
 11 10  1  0  0  0  0
 12 11  2  0  0  0  0
 13 15  2  0  0  0  0
 13 12  1  0  0  0  0
 14 13  1  0  0  0  0
 15 16  1  0  0  0  0
 16 10  2  0  0  0  0
 17 18  1  0  0  0  0
 18 19  1  0  0  0  0
 19  1  1  0  0  0  0
 19 20  2  0  0  0  0
 21 18  1  0  0  0  0
 22 24  1  0  0  0  0
 22 23  1  0  0  0  0
 24 23  1  0  0  0  0
 25 30  1  0  0  0  0
 26 25  1  0  0  0  0
 26 28  2  0  0  0  0
 27 26  1  0  0  0  0
 29 26  2  0  0  0  0
 30 31  1  0  0  0  0
 32 33  1  0  0  0  0
 32 31  1  0  0  0  0
M  END
>  <minimizedAffinity>
-11.2219896

$$$$
