
 OpenBabel08152221313D

 33 36  0  0  0  0  0  0  0  0999 V2000
   18.6720    9.2940    6.2020 C   0  0  0  0  0  0  0  0  0  0  0  0
   17.7520    9.9340    5.3800 C   0  0  0  0  0  0  0  0  0  0  0  0
   17.5110   11.1940    5.8600 O   0  0  0  0  0  0  0  0  0  0  0  0
   18.2950   11.3790    6.9490 C   0  0  0  0  0  0  0  0  0  0  0  0
   18.3620   12.5410    7.7030 C   0  0  0  0  0  3  0  0  0  0  0  0
   19.2610   12.5530    8.7850 C   0  0  0  0  0  0  0  0  0  0  0  0
   20.0890   11.4430    9.0980 C   0  0  0  0  0  0  0  0  0  0  0  0
   19.9570   10.2930    8.2770 C   0  0  0  0  0  3  0  0  0  0  0  0
   19.0450   10.2480    7.2030 C   0  0  0  0  0  0  0  0  0  0  0  0
   16.9910    9.5830    4.1810 C   0  0  0  0  0  0  0  0  0  0  0  0
   16.0330   10.4740    3.6630 C   0  0  0  0  0  3  0  0  0  0  0  0
   15.2980   10.1570    2.5180 C   0  0  0  0  0  3  0  0  0  0  0  0
   15.5130    8.9420    1.8830 C   0  0  0  0  0  0  0  0  0  0  0  0
   14.8090    8.6350    0.7860 F   0  0  0  0  0  0  0  0  0  0  0  0
   16.4480    8.0410    2.3730 C   0  0  0  0  0  3  0  0  0  0  0  0
   17.1840    8.3590    3.5190 C   0  0  0  0  0  3  0  0  0  0  0  0
   20.5100    8.6870    3.9610 C   0  0  0  0  0  1  0  0  0  0  0  0
   19.9810    7.7280    4.9030 N   0  0  0  0  0  0  0  0  0  0  0  0
   19.1930    7.9610    6.0020 C   0  0  0  0  0  0  0  0  0  0  0  0
   18.9690    7.0420    6.7840 O   0  0  0  0  0  0  0  0  0  0  0  0
   20.2650    6.7600    4.8170 H   0  0  0  0  0  0  0  0  0  0  0  0
   21.1000   11.4730   10.2380 C   0  0  0  0  0  3  0  0  0  0  0  0
   20.9810   10.4380   11.3370 C   0  0  0  0  0  2  0  0  0  0  0  0
   22.1820   10.4350   10.4450 C   0  0  0  0  0  2  0  0  0  0  0  0
   19.3170   13.8160    9.4750 N   0  0  0  0  0  0  0  0  0  0  0  0
   20.0200   15.1610    8.7400 S   0  0  0  0  0  0  0  0  0  0  0  0
   18.6380   16.1400    8.1840 C   0  0  0  0  0  1  0  0  0  0  0  0
   20.7550   15.9170    9.7300 O   0  0  0  0  0  0  0  0  0  0  0  0
   20.7050   14.6590    7.5630 O   0  0  0  0  0  0  0  0  0  0  0  0
   18.2310   14.0850   10.4650 C   0  0  0  0  0  2  0  0  0  0  0  0
   17.9790   12.8460   11.3290 C   0  0  0  0  0  2  0  0  0  0  0  0
   16.6820   12.2970   11.1250 O   0  0  0  0  0  0  0  0  0  0  0  0
   16.0260   13.0240   11.2040 H   0  0  0  0  0  0  0  0  0  0  0  0
  1  9  1  0  0  0  0
  2  3  1  0  0  0  0
  2  1  2  0  0  0  0
  3  4  1  0  0  0  0
  4  9  2  0  0  0  0
  4  5  1  0  0  0  0
  5  6  2  0  0  0  0
  6  7  1  0  0  0  0
  6 25  1  0  0  0  0
  7 22  1  0  0  0  0
  8  7  2  0  0  0  0
  9  8  1  0  0  0  0
 10  2  1  0  0  0  0
 11 10  1  0  0  0  0
 12 11  2  0  0  0  0
 13 15  2  0  0  0  0
 13 12  1  0  0  0  0
 14 13  1  0  0  0  0
 15 16  1  0  0  0  0
 16 10  2  0  0  0  0
 17 18  1  0  0  0  0
 18 19  1  0  0  0  0
 19  1  1  0  0  0  0
 19 20  2  0  0  0  0
 21 18  1  0  0  0  0
 22 24  1  0  0  0  0
 22 23  1  0  0  0  0
 24 23  1  0  0  0  0
 25 30  1  0  0  0  0
 26 25  1  0  0  0  0
 26 28  2  0  0  0  0
 27 26  1  0  0  0  0
 29 26  2  0  0  0  0
 30 31  1  0  0  0  0
 32 33  1  0  0  0  0
 32 31  1  0  0  0  0
M  END
>  <minimizedAffinity>
-11.2219896

$$$$

 OpenBabel08152221313D

 33 36  0  0  0  0  0  0  0  0999 V2000
   19.3010    9.3460    6.3450 C   0  0  0  0  0  0  0  0  0  0  0  0
   18.1520    9.7880    5.6990 C   0  0  0  0  0  0  0  0  0  0  0  0
   17.5760   10.7930    6.4290 O   0  0  0  0  0  0  0  0  0  0  0  0
   18.3640   11.0250    7.5070 C   0  0  0  0  0  0  0  0  0  0  0  0
   18.1370   11.9910    8.4750 C   0  0  0  0  0  3  0  0  0  0  0  0
   19.0870   12.1010    9.5070 C   0  0  0  0  0  0  0  0  0  0  0  0
   20.2480   11.2850    9.5630 C   0  0  0  0  0  0  0  0  0  0  0  0
   20.4040   10.3210    8.5330 C   0  0  0  0  0  3  0  0  0  0  0  0
   19.4520   10.1740    7.5030 C   0  0  0  0  0  0  0  0  0  0  0  0
   17.4270    9.4270    4.4800 C   0  0  0  0  0  0  0  0  0  0  0  0
   16.3040   10.1740    4.0770 C   0  0  0  0  0  3  0  0  0  0  0  0
   15.6000    9.8470    2.9150 C   0  0  0  0  0  3  0  0  0  0  0  0
   16.0120    8.7670    2.1490 C   0  0  0  0  0  0  0  0  0  0  0  0
   15.3390    8.4500    1.0350 F   0  0  0  0  0  0  0  0  0  0  0  0
   17.1140    8.0090    2.5230 C   0  0  0  0  0  3  0  0  0  0  0  0
   17.8180    8.3380    3.6860 C   0  0  0  0  0  3  0  0  0  0  0  0
   19.1880    6.5950    7.4350 C   0  0  0  0  0  1  0  0  0  0  0  0
   20.1390    7.0790    6.4620 N   0  0  0  0  0  0  0  0  0  0  0  0
   20.1910    8.3130    5.8640 C   0  0  0  0  0  0  0  0  0  0  0  0
   20.9740    8.4990    4.9380 O   0  0  0  0  0  0  0  0  0  0  0  0
   20.8260    6.4320    6.0950 H   0  0  0  0  0  0  0  0  0  0  0  0
   21.3040   11.4380   10.6510 C   0  0  0  0  0  3  0  0  0  0  0  0
   21.4680   10.3220   11.6610 C   0  0  0  0  0  2  0  0  0  0  0  0
   22.5840   10.6340   10.7140 C   0  0  0  0  0  2  0  0  0  0  0  0
   18.8120   13.1690   10.4340 N   0  0  0  0  0  0  0  0  0  0  0  0
   18.3270   12.8270   12.0120 S   0  0  0  0  0  0  0  0  0  0  0  0
   17.7560   11.1390   11.9490 C   0  0  0  0  0  1  0  0  0  0  0  0
   19.4740   12.8950   12.8910 O   0  0  0  0  0  0  0  0  0  0  0  0
   17.1740   13.6710   12.2660 O   0  0  0  0  0  0  0  0  0  0  0  0
   19.5620   14.4440   10.2250 C   0  0  0  0  0  2  0  0  0  0  0  0
   18.6800   15.4680    9.5050 C   0  0  0  0  0  2  0  0  0  0  0  0
   19.4430   16.4360    8.7930 O   0  0  0  0  0  0  0  0  0  0  0  0
   20.1240   16.7980    9.4010 H   0  0  0  0  0  0  0  0  0  0  0  0
  1  9  1  0  0  0  0
  2  1  2  0  0  0  0
  2  3  1  0  0  0  0
  3  4  1  0  0  0  0
  4  5  1  0  0  0  0
  5  6  2  0  0  0  0
  6  7  1  0  0  0  0
  6 25  1  0  0  0  0
  7 22  1  0  0  0  0
  8  7  2  0  0  0  0
  9  4  2  0  0  0  0
  9  8  1  0  0  0  0
 10  2  1  0  0  0  0
 11 10  1  0  0  0  0
 12 11  2  0  0  0  0
 13 15  2  0  0  0  0
 13 12  1  0  0  0  0
 14 13  1  0  0  0  0
 15 16  1  0  0  0  0
 16 10  2  0  0  0  0
 18 17  1  0  0  0  0
 19  1  1  0  0  0  0
 19 18  1  0  0  0  0
 20 19  2  0  0  0  0
 21 18  1  0  0  0  0
 22 24  1  0  0  0  0
 22 23  1  0  0  0  0
 24 23  1  0  0  0  0
 25 26  1  0  0  0  0
 26 29  2  0  0  0  0
 26 28  2  0  0  0  0
 27 26  1  0  0  0  0
 30 25  1  0  0  0  0
 31 30  1  0  0  0  0
 32 33  1  0  0  0  0
 32 31  1  0  0  0  0
M  END
>  <minimizedAffinity>
-10.5112438

$$$$
