
 OpenBabel09052217133D

 33 36  0  0  0  0  0  0  0  0999 V2000
   18.2040    6.7290   16.2710 O   0  0  0  0  0  0  0  0  0  0  0  0
   14.4230    7.7870   17.4380 C   0  0  0  0  0  0  0  0  0  0  0  0
   15.1540    8.7210   16.6980 C   0  0  0  0  0  0  0  0  0  0  0  0
   14.9690    6.5390   17.7650 C   0  0  0  0  0  3  0  0  0  0  0  0
   16.2730    6.2380   17.3330 C   0  0  0  0  0  0  0  0  0  0  0  0
   16.4510    8.4440   16.2590 C   0  0  0  0  0  3  0  0  0  0  0  0
   16.9670    7.1940   16.6000 C   0  0  0  0  0  0  0  0  0  0  0  0
   17.1510    5.1280   17.4510 C   0  0  0  0  0  0  0  0  0  0  0  0
   18.3070    5.4780   16.7910 C   0  0  0  0  0  0  0  0  0  0  0  0
   14.5830    9.9930   16.3700 N   0  0  0  0  0  0  0  0  0  0  0  0
   13.7520   10.1230   14.8650 S   0  0  0  0  0  0  0  0  0  0  0  0
   12.4560   10.7390   15.0830 O   0  0  0  0  0  0  0  0  0  0  0  0
   13.8490    8.8730   14.1330 O   0  0  0  0  0  0  0  0  0  0  0  0
   14.7540   11.3210   14.0110 C   0  0  0  0  0  1  0  0  0  0  0  0
   15.2770   11.2070   16.8850 C   0  0  0  0  0  2  0  0  0  0  0  0
   14.5940   11.6860   18.1530 C   0  0  0  0  0  2  0  0  0  0  0  0
   13.2090   11.8830   17.8960 O   0  0  0  0  0  0  0  0  0  0  0  0
   13.1320   12.5390   17.1830 H   0  0  0  0  0  0  0  0  0  0  0  0
   13.0360    8.1000   17.9010 C   0  0  0  0  0  3  0  0  0  0  0  0
   12.8310    8.5820   19.3010 C   0  0  0  0  0  2  0  0  0  0  0  0
   12.3870    7.2040   18.9050 C   0  0  0  0  0  2  0  0  0  0  0  0
   16.9210    3.8790   18.1160 C   0  0  0  0  0  0  0  0  0  0  0  0
   17.0780    3.7310   19.3470 O   0  0  0  0  0  0  0  0  0  0  0  0
   16.4760    2.8100   17.3220 N   0  0  0  0  0  0  0  0  0  0  0  0
   16.1720    1.4980   17.8480 C   0  0  0  0  0  1  0  0  0  0  0  0
   16.2410    2.9740   16.3490 H   0  0  0  0  0  0  0  0  0  0  0  0
   19.5590    4.8200   16.5420 C   0  0  0  0  0  0  0  0  0  0  0  0
   20.0380    3.8600   17.4380 C   0  0  0  0  0  3  0  0  0  0  0  0
   21.2550    3.2210   17.1970 C   0  0  0  0  0  3  0  0  0  0  0  0
   21.9960    3.5400   16.0590 C   0  0  0  0  0  0  0  0  0  0  0  0
   23.1640    2.9260   15.8290 F   0  0  0  0  0  0  0  0  0  0  0  0
   21.5220    4.4970   15.1630 C   0  0  0  0  0  3  0  0  0  0  0  0
   20.3070    5.1360   15.4050 C   0  0  0  0  0  3  0  0  0  0  0  0
  1  7  1  0  0  0  0
  1  9  1  0  0  0  0
  2  4  1  0  0  0  0
  2 19  1  0  0  0  0
  3  2  2  0  0  0  0
  5  8  1  0  0  0  0
  5  4  2  0  0  0  0
  6  7  2  0  0  0  0
  6  3  1  0  0  0  0
  7  5  1  0  0  0  0
  8 22  1  0  0  0  0
  9  8  2  0  0  0  0
 10  3  1  0  0  0  0
 10 15  1  0  0  0  0
 11 12  2  0  0  0  0
 11 10  1  0  0  0  0
 13 11  2  0  0  0  0
 14 11  1  0  0  0  0
 15 16  1  0  0  0  0
 17 16  1  0  0  0  0
 18 17  1  0  0  0  0
 19 21  1  0  0  0  0
 19 20  1  0  0  0  0
 21 20  1  0  0  0  0
 22 23  2  0  0  0  0
 24 25  1  0  0  0  0
 24 22  1  0  0  0  0
 26 24  1  0  0  0  0
 27  9  1  0  0  0  0
 27 28  1  0  0  0  0
 29 28  2  0  0  0  0
 30 29  1  0  0  0  0
 31 30  1  0  0  0  0
 32 33  1  0  0  0  0
 32 30  2  0  0  0  0
 33 27  2  0  0  0  0
M  END
>  <minimizedAffinity>
-8.05053806

$$$$

 OpenBabel09052217133D

 33 36  0  0  0  0  0  0  0  0999 V2000
   32.9220   16.1230    8.8900 O   0  0  0  0  0  0  0  0  0  0  0  0
   34.7920   12.5040    8.4650 C   0  0  0  0  0  0  0  0  0  0  0  0
   34.2290   12.7950    9.7100 C   0  0  0  0  0  0  0  0  0  0  0  0
   34.7150   13.4180    7.4060 C   0  0  0  0  0  3  0  0  0  0  0  0
   34.0590   14.6440    7.6180 C   0  0  0  0  0  0  0  0  0  0  0  0
   33.5720   14.0060    9.9440 C   0  0  0  0  0  3  0  0  0  0  0  0
   33.5130   14.8960    8.8720 C   0  0  0  0  0  0  0  0  0  0  0  0
   33.7760   15.7930    6.8340 C   0  0  0  0  0  0  0  0  0  0  0  0
   33.0860   16.6590    7.6530 C   0  0  0  0  0  0  0  0  0  0  0  0
   34.3130   11.8510   10.7830 N   0  0  0  0  0  0  0  0  0  0  0  0
   32.9620   10.8070   11.0260 S   0  0  0  0  0  0  0  0  0  0  0  0
   33.0540    9.6800   10.1170 O   0  0  0  0  0  0  0  0  0  0  0  0
   31.7390   11.5860   11.0980 O   0  0  0  0  0  0  0  0  0  0  0  0
   33.2910   10.1790   12.6590 C   0  0  0  0  0  1  0  0  0  0  0  0
   35.1080   12.2440   11.9800 C   0  0  0  0  0  2  0  0  0  0  0  0
   36.5810   11.9870   11.7210 C   0  0  0  0  0  2  0  0  0  0  0  0
   36.7890   10.5950   11.5200 O   0  0  0  0  0  0  0  0  0  0  0  0
   36.4840   10.1330   12.3200 H   0  0  0  0  0  0  0  0  0  0  0  0
   35.4920   11.2030    8.2310 C   0  0  0  0  0  3  0  0  0  0  0  0
   36.9810   11.1930    8.1100 C   0  0  0  0  0  2  0  0  0  0  0  0
   36.1240   10.9470    6.9020 C   0  0  0  0  0  2  0  0  0  0  0  0
   34.1230   16.0440    5.4660 C   0  0  0  0  0  0  0  0  0  0  0  0
   33.3140   15.8940    4.5260 O   0  0  0  0  0  0  0  0  0  0  0  0
   35.4270   16.5030    5.2160 N   0  0  0  0  0  0  0  0  0  0  0  0
   35.9180   16.8280    3.8960 C   0  0  0  0  0  1  0  0  0  0  0  0
   36.0350   16.7310    5.9950 H   0  0  0  0  0  0  0  0  0  0  0  0
   32.5200   17.9680    7.4790 C   0  0  0  0  0  0  0  0  0  0  0  0
   33.2080   19.0960    7.9360 C   0  0  0  0  0  3  0  0  0  0  0  0
   32.6580   20.3680    7.7690 C   0  0  0  0  0  3  0  0  0  0  0  0
   31.4200   20.5150    7.1430 C   0  0  0  0  0  0  0  0  0  0  0  0
   30.8920   21.7360    6.9820 F   0  0  0  0  0  0  0  0  0  0  0  0
   30.7310   19.3920    6.6850 C   0  0  0  0  0  3  0  0  0  0  0  0
   31.2800   18.1210    6.8540 C   0  0  0  0  0  3  0  0  0  0  0  0
  2  3  1  0  0  0  0
  3  6  2  0  0  0  0
  3 10  1  0  0  0  0
  4  5  1  0  0  0  0
  4  2  2  0  0  0  0
  5  7  2  0  0  0  0
  7  1  1  0  0  0  0
  7  6  1  0  0  0  0
  8  5  1  0  0  0  0
  8  9  2  0  0  0  0
  9  1  1  0  0  0  0
 10 11  1  0  0  0  0
 10 15  1  0  0  0  0
 11 13  2  0  0  0  0
 11 14  1  0  0  0  0
 12 11  2  0  0  0  0
 16 15  1  0  0  0  0
 17 16  1  0  0  0  0
 17 18  1  0  0  0  0
 19  2  1  0  0  0  0
 20 19  1  0  0  0  0
 21 20  1  0  0  0  0
 21 19  1  0  0  0  0
 22  8  1  0  0  0  0
 23 22  2  0  0  0  0
 24 22  1  0  0  0  0
 24 26  1  0  0  0  0
 25 24  1  0  0  0  0
 27  9  1  0  0  0  0
 27 28  1  0  0  0  0
 29 28  2  0  0  0  0
 30 29  1  0  0  0  0
 31 30  1  0  0  0  0
 32 33  1  0  0  0  0
 32 30  2  0  0  0  0
 33 27  2  0  0  0  0
M  END
>  <minimizedAffinity>
-7.56974697

$$$$

 OpenBabel09052217133D

 33 36  0  0  0  0  0  0  0  0999 V2000
   17.9370    7.2720   16.5710 O   0  0  0  0  0  0  0  0  0  0  0  0
   14.0470    8.5530   16.4860 C   0  0  0  0  0  0  0  0  0  0  0  0
   15.0300    9.4990   16.7880 C   0  0  0  0  0  0  0  0  0  0  0  0
   14.3850    7.2190   16.2230 C   0  0  0  0  0  3  0  0  0  0  0  0
   15.7400    6.8440   16.2680 C   0  0  0  0  0  0  0  0  0  0  0  0
   16.3820    9.1500   16.8380 C   0  0  0  0  0  3  0  0  0  0  0  0
   16.6880    7.8160   16.5730 C   0  0  0  0  0  0  0  0  0  0  0  0
   16.4690    5.6420   16.0700 C   0  0  0  0  0  0  0  0  0  0  0  0
   17.7940    5.9560   16.2660 C   0  0  0  0  0  0  0  0  0  0  0  0
   14.6700   10.8590   17.0530 N   0  0  0  0  0  0  0  0  0  0  0  0
   14.8520   11.9910   15.7650 S   0  0  0  0  0  0  0  0  0  0  0  0
   14.0500   11.5650   14.6330 O   0  0  0  0  0  0  0  0  0  0  0  0
   16.2550   12.3160   15.5820 O   0  0  0  0  0  0  0  0  0  0  0  0
   14.0560   13.4310   16.4460 C   0  0  0  0  0  1  0  0  0  0  0  0
   14.8580   11.3580   18.4440 C   0  0  0  0  0  2  0  0  0  0  0  0
   14.4400   10.2840   19.4320 C   0  0  0  0  0  2  0  0  0  0  0  0
   13.3020   10.7300   20.1590 O   0  0  0  0  0  0  0  0  0  0  0  0
   13.5470   11.5530   20.6140 H   0  0  0  0  0  0  0  0  0  0  0  0
   12.6050    8.9430   16.4360 C   0  0  0  0  0  3  0  0  0  0  0  0
   11.6990    8.5140   17.5450 C   0  0  0  0  0  2  0  0  0  0  0  0
   11.5750    7.8890   16.1860 C   0  0  0  0  0  2  0  0  0  0  0  0
   15.9650    4.3410   15.7360 C   0  0  0  0  0  0  0  0  0  0  0  0
   15.9590    3.3910   16.5470 O   0  0  0  0  0  0  0  0  0  0  0  0
   15.4390    4.1780   14.4440 N   0  0  0  0  0  0  0  0  0  0  0  0
   14.8680    2.9390   13.9670 C   0  0  0  0  0  1  0  0  0  0  0  0
   15.3430    4.9850   13.8370 H   0  0  0  0  0  0  0  0  0  0  0  0
   19.0210    5.2090   16.2160 C   0  0  0  0  0  0  0  0  0  0  0  0
   19.2890    4.2330   17.1810 C   0  0  0  0  0  3  0  0  0  0  0  0
   20.4800    3.5090   17.1330 C   0  0  0  0  0  3  0  0  0  0  0  0
   21.4070    3.7570   16.1210 C   0  0  0  0  0  0  0  0  0  0  0  0
   22.5500    3.0610   16.0750 F   0  0  0  0  0  0  0  0  0  0  0  0
   21.1440    4.7300   15.1560 C   0  0  0  0  0  3  0  0  0  0  0  0
   19.9530    5.4550   15.2050 C   0  0  0  0  0  3  0  0  0  0  0  0
  1  7  1  0  0  0  0
  2  3  1  0  0  0  0
  3  6  2  0  0  0  0
  3 10  1  0  0  0  0
  4  5  1  0  0  0  0
  4  2  2  0  0  0  0
  5  7  2  0  0  0  0
  7  6  1  0  0  0  0
  8  9  2  0  0  0  0
  8  5  1  0  0  0  0
  9  1  1  0  0  0  0
 10 15  1  0  0  0  0
 11 14  1  0  0  0  0
 11 10  1  0  0  0  0
 12 11  2  0  0  0  0
 13 11  2  0  0  0  0
 15 16  1  0  0  0  0
 16 17  1  0  0  0  0
 17 18  1  0  0  0  0
 19  2  1  0  0  0  0
 19 20  1  0  0  0  0
 21 19  1  0  0  0  0
 21 20  1  0  0  0  0
 22  8  1  0  0  0  0
 22 23  2  0  0  0  0
 24 22  1  0  0  0  0
 25 24  1  0  0  0  0
 26 24  1  0  0  0  0
 27  9  1  0  0  0  0
 27 28  1  0  0  0  0
 29 28  2  0  0  0  0
 30 29  1  0  0  0  0
 31 30  1  0  0  0  0
 32 33  1  0  0  0  0
 32 30  2  0  0  0  0
 33 27  2  0  0  0  0
M  END
>  <minimizedAffinity>
-7.53305101

$$$$

 OpenBabel09052217133D

 33 36  0  0  0  0  0  0  0  0999 V2000
   15.0030   14.1680   22.3310 O   0  0  0  0  0  0  0  0  0  0  0  0
   17.5360   11.2960   20.8770 C   0  0  0  0  0  0  0  0  0  0  0  0
   16.9600   12.1740   19.9540 C   0  0  0  0  0  0  0  0  0  0  0  0
   17.2550   11.4010   22.2460 C   0  0  0  0  0  3  0  0  0  0  0  0
   16.3760   12.4100   22.6800 C   0  0  0  0  0  0  0  0  0  0  0  0
   16.0840   13.1830   20.3620 C   0  0  0  0  0  3  0  0  0  0  0  0
   15.8230   13.2620   21.7300 C   0  0  0  0  0  0  0  0  0  0  0  0
   15.8550   12.8340   23.9300 C   0  0  0  0  0  0  0  0  0  0  0  0
   15.0280   13.9010   23.6630 C   0  0  0  0  0  0  0  0  0  0  0  0
   17.2570   12.0560   18.5580 N   0  0  0  0  0  0  0  0  0  0  0  0
   18.4840   13.0860   17.9220 S   0  0  0  0  0  0  0  0  0  0  0  0
   18.7920   12.6850   16.5610 O   0  0  0  0  0  0  0  0  0  0  0  0
   19.5520   13.2470   18.8920 O   0  0  0  0  0  0  0  0  0  0  0  0
   17.6210   14.6400   17.8170 C   0  0  0  0  0  1  0  0  0  0  0  0
   16.1410   11.6660   17.6520 C   0  0  0  0  0  2  0  0  0  0  0  0
   16.4070   10.2860   17.0800 C   0  0  0  0  0  2  0  0  0  0  0  0
   16.9820   10.4140   15.7860 O   0  0  0  0  0  0  0  0  0  0  0  0
   16.3550   10.9120   15.2330 H   0  0  0  0  0  0  0  0  0  0  0  0
   18.4700   10.2210   20.4240 C   0  0  0  0  0  3  0  0  0  0  0  0
   18.1700    8.8010   20.7810 C   0  0  0  0  0  2  0  0  0  0  0  0
   19.3140    9.5170   21.4370 C   0  0  0  0  0  2  0  0  0  0  0  0
   16.1090   12.2870   25.2310 C   0  0  0  0  0  0  0  0  0  0  0  0
   15.5930   11.2200   25.6270 O   0  0  0  0  0  0  0  0  0  0  0  0
   17.0010   12.9940   26.0530 N   0  0  0  0  0  0  0  0  0  0  0  0
   17.3810   12.5570   27.3780 C   0  0  0  0  0  1  0  0  0  0  0  0
   17.5010   13.7930   25.6780 H   0  0  0  0  0  0  0  0  0  0  0  0
   14.2130   14.7670   24.4690 C   0  0  0  0  0  0  0  0  0  0  0  0
   14.8100   15.7180   25.3020 C   0  0  0  0  0  3  0  0  0  0  0  0
   14.0190   16.5580   26.0860 C   0  0  0  0  0  3  0  0  0  0  0  0
   12.6290   16.4500   26.0400 C   0  0  0  0  0  0  0  0  0  0  0  0
   11.8700   17.2570   26.7920 F   0  0  0  0  0  0  0  0  0  0  0  0
   12.0290   15.5030   25.2100 C   0  0  0  0  0  3  0  0  0  0  0  0
   12.8210   14.6630   24.4270 C   0  0  0  0  0  3  0  0  0  0  0  0
  1  9  1  0  0  0  0
  2  4  1  0  0  0  0
  3  6  1  0  0  0  0
  3  2  2  0  0  0  0
  4  5  2  0  0  0  0
  5  8  1  0  0  0  0
  6  7  2  0  0  0  0
  7  1  1  0  0  0  0
  7  5  1  0  0  0  0
  8 22  1  0  0  0  0
  9  8  2  0  0  0  0
  9 27  1  0  0  0  0
 10  3  1  0  0  0  0
 11 10  1  0  0  0  0
 11 13  2  0  0  0  0
 12 11  2  0  0  0  0
 14 11  1  0  0  0  0
 15 10  1  0  0  0  0
 16 15  1  0  0  0  0
 17 16  1  0  0  0  0
 18 17  1  0  0  0  0
 19 20  1  0  0  0  0
 19  2  1  0  0  0  0
 19 21  1  0  0  0  0
 20 21  1  0  0  0  0
 22 23  2  0  0  0  0
 22 24  1  0  0  0  0
 24 25  1  0  0  0  0
 26 24  1  0  0  0  0
 27 28  1  0  0  0  0
 28 29  2  0  0  0  0
 30 29  1  0  0  0  0
 30 31  1  0  0  0  0
 32 30  2  0  0  0  0
 33 27  2  0  0  0  0
 33 32  1  0  0  0  0
M  END
>  <minimizedAffinity>
-7.48523808

$$$$

 OpenBabel09052217133D

 33 36  0  0  0  0  0  0  0  0999 V2000
   18.1910    7.0520   16.2320 O   0  0  0  0  0  0  0  0  0  0  0  0
   14.3840    8.3640   16.9780 C   0  0  0  0  0  0  0  0  0  0  0  0
   15.2950    9.2910   16.4640 C   0  0  0  0  0  0  0  0  0  0  0  0
   14.7640    7.0380   17.2250 C   0  0  0  0  0  3  0  0  0  0  0  0
   16.0870    6.6520   16.9470 C   0  0  0  0  0  0  0  0  0  0  0  0
   16.6150    8.9300   16.1800 C   0  0  0  0  0  3  0  0  0  0  0  0
   16.9630    7.6050   16.4370 C   0  0  0  0  0  0  0  0  0  0  0  0
   16.8390    5.4520   17.0520 C   0  0  0  0  0  0  0  0  0  0  0  0
   18.1060    5.7490   16.6060 C   0  0  0  0  0  0  0  0  0  0  0  0
   14.8930   10.6430   16.2160 N   0  0  0  0  0  0  0  0  0  0  0  0
   14.7350   11.6840   17.5800 S   0  0  0  0  0  0  0  0  0  0  0  0
   15.3110   11.0410   18.7470 O   0  0  0  0  0  0  0  0  0  0  0  0
   13.3900   12.2270   17.6390 O   0  0  0  0  0  0  0  0  0  0  0  0
   15.8290   13.0170   17.1360 C   0  0  0  0  0  1  0  0  0  0  0  0
   13.9960   10.8860   15.0510 C   0  0  0  0  0  2  0  0  0  0  0  0
   14.8130   10.9030   13.7730 C   0  0  0  0  0  2  0  0  0  0  0  0
   14.6060   12.1380   13.0980 O   0  0  0  0  0  0  0  0  0  0  0  0
   13.6550   12.2150   12.9110 H   0  0  0  0  0  0  0  0  0  0  0  0
   12.9750    8.7670   17.2770 C   0  0  0  0  0  3  0  0  0  0  0  0
   12.2990    8.1980   18.4820 C   0  0  0  0  0  2  0  0  0  0  0  0
   11.8810    7.7640   17.1080 C   0  0  0  0  0  2  0  0  0  0  0  0
   16.4040    4.1700   17.5240 C   0  0  0  0  0  0  0  0  0  0  0  0
   16.5860    3.7860   18.6990 O   0  0  0  0  0  0  0  0  0  0  0  0
   15.7260    3.3520   16.6050 N   0  0  0  0  0  0  0  0  0  0  0  0
   15.2010    2.0470   16.9360 C   0  0  0  0  0  1  0  0  0  0  0  0
   15.4820    3.7210   15.6920 H   0  0  0  0  0  0  0  0  0  0  0  0
   19.3200    4.9960   16.4580 C   0  0  0  0  0  0  0  0  0  0  0  0
   19.6490    4.0030   17.3860 C   0  0  0  0  0  3  0  0  0  0  0  0
   20.8280    3.2720   17.2420 C   0  0  0  0  0  3  0  0  0  0  0  0
   21.6820    3.5290   16.1690 C   0  0  0  0  0  0  0  0  0  0  0  0
   22.8140    2.8270   16.0320 F   0  0  0  0  0  0  0  0  0  0  0  0
   21.3580    4.5190   15.2410 C   0  0  0  0  0  3  0  0  0  0  0  0
   20.1800    5.2500   15.3860 C   0  0  0  0  0  3  0  0  0  0  0  0
  1  7  1  0  0  0  0
  1  9  1  0  0  0  0
  2  4  1  0  0  0  0
  2 19  1  0  0  0  0
  3  2  2  0  0  0  0
  5  8  1  0  0  0  0
  5  4  2  0  0  0  0
  6  7  2  0  0  0  0
  6  3  1  0  0  0  0
  7  5  1  0  0  0  0
  8 22  1  0  0  0  0
  9  8  2  0  0  0  0
 10  3  1  0  0  0  0
 10 11  1  0  0  0  0
 11 13  2  0  0  0  0
 11 12  2  0  0  0  0
 14 11  1  0  0  0  0
 15 10  1  0  0  0  0
 16 15  1  0  0  0  0
 17 16  1  0  0  0  0
 18 17  1  0  0  0  0
 19 20  1  0  0  0  0
 21 19  1  0  0  0  0
 21 20  1  0  0  0  0
 22 23  2  0  0  0  0
 24 25  1  0  0  0  0
 24 22  1  0  0  0  0
 26 24  1  0  0  0  0
 27  9  1  0  0  0  0
 27 28  1  0  0  0  0
 29 28  2  0  0  0  0
 30 29  1  0  0  0  0
 31 30  1  0  0  0  0
 32 33  1  0  0  0  0
 32 30  2  0  0  0  0
 33 27  2  0  0  0  0
M  END
>  <minimizedAffinity>
-7.33740044

$$$$

 OpenBabel09052217133D

 33 36  0  0  0  0  0  0  0  0999 V2000
    7.4540   31.5000    0.8110 O   0  0  0  0  0  0  0  0  0  0  0  0
   10.9790   33.5560    0.4610 C   0  0  0  0  0  0  0  0  0  0  0  0
    9.9870   33.8110   -0.4910 C   0  0  0  0  0  0  0  0  0  0  0  0
   10.7690   32.6310    1.4920 C   0  0  0  0  0  3  0  0  0  0  0  0
    9.5360   31.9590    1.5560 C   0  0  0  0  0  0  0  0  0  0  0  0
    8.7540   33.1550   -0.4470 C   0  0  0  0  0  3  0  0  0  0  0  0
    8.5750   32.2410    0.5900 C   0  0  0  0  0  0  0  0  0  0  0  0
    8.9510   30.9870    2.4110 C   0  0  0  0  0  0  0  0  0  0  0  0
    7.6900   30.7440    1.9150 C   0  0  0  0  0  0  0  0  0  0  0  0
   10.2150   34.7590   -1.5390 N   0  0  0  0  0  0  0  0  0  0  0  0
    9.7420   36.3910   -1.2460 S   0  0  0  0  0  0  0  0  0  0  0  0
   10.7150   37.2890   -1.8420 O   0  0  0  0  0  0  0  0  0  0  0  0
    9.3570   36.5560    0.1440 O   0  0  0  0  0  0  0  0  0  0  0  0
    8.2620   36.5110   -2.2270 C   0  0  0  0  0  1  0  0  0  0  0  0
   10.1440   34.2590   -2.9410 C   0  0  0  0  0  2  0  0  0  0  0  0
   11.4580   34.5370   -3.6480 C   0  0  0  0  0  2  0  0  0  0  0  0
   11.3430   35.7370   -4.4020 O   0  0  0  0  0  0  0  0  0  0  0  0
   10.6180   35.6180   -5.0370 H   0  0  0  0  0  0  0  0  0  0  0  0
   12.2930   34.2660    0.3990 C   0  0  0  0  0  3  0  0  0  0  0  0
   13.3750   33.7150   -0.4720 C   0  0  0  0  0  2  0  0  0  0  0  0
   13.4930   33.6290    1.0220 C   0  0  0  0  0  2  0  0  0  0  0  0
    9.5240   30.3590    3.5650 C   0  0  0  0  0  0  0  0  0  0  0  0
   10.4430   29.5160    3.4890 O   0  0  0  0  0  0  0  0  0  0  0  0
    9.0240   30.7550    4.8170 N   0  0  0  0  0  0  0  0  0  0  0  0
    9.5180   30.2370    6.0730 C   0  0  0  0  0  1  0  0  0  0  0  0
    8.3630   31.5220    4.8710 H   0  0  0  0  0  0  0  0  0  0  0  0
    6.6060   29.8870    2.3070 C   0  0  0  0  0  0  0  0  0  0  0  0
    5.7640   30.2570    3.3600 C   0  0  0  0  0  3  0  0  0  0  0  0
    4.7120   29.4250    3.7420 C   0  0  0  0  0  3  0  0  0  0  0  0
    4.4960   28.2210    3.0700 C   0  0  0  0  0  0  0  0  0  0  0  0
    3.4850   27.4230    3.4360 F   0  0  0  0  0  0  0  0  0  0  0  0
    5.3330   27.8490    2.0180 C   0  0  0  0  0  3  0  0  0  0  0  0
    6.3860   28.6800    1.6390 C   0  0  0  0  0  3  0  0  0  0  0  0
  1  9  1  0  0  0  0
  2  4  1  0  0  0  0
  3  6  1  0  0  0  0
  3  2  2  0  0  0  0
  4  5  2  0  0  0  0
  5  8  1  0  0  0  0
  6  7  2  0  0  0  0
  7  1  1  0  0  0  0
  7  5  1  0  0  0  0
  8 22  1  0  0  0  0
  9 27  1  0  0  0  0
  9  8  2  0  0  0  0
 10 11  1  0  0  0  0
 10  3  1  0  0  0  0
 11 13  2  0  0  0  0
 12 11  2  0  0  0  0
 14 11  1  0  0  0  0
 15 10  1  0  0  0  0
 16 15  1  0  0  0  0
 17 16  1  0  0  0  0
 18 17  1  0  0  0  0
 19  2  1  0  0  0  0
 19 21  1  0  0  0  0
 20 19  1  0  0  0  0
 20 21  1  0  0  0  0
 22 24  1  0  0  0  0
 23 22  2  0  0  0  0
 24 26  1  0  0  0  0
 24 25  1  0  0  0  0
 27 28  1  0  0  0  0
 28 29  2  0  0  0  0
 30 31  1  0  0  0  0
 30 29  1  0  0  0  0
 32 30  2  0  0  0  0
 33 32  1  0  0  0  0
 33 27  2  0  0  0  0
M  END
>  <minimizedAffinity>
-7.18749428

$$$$

 OpenBabel09052217133D

 33 36  0  0  0  0  0  0  0  0999 V2000
   37.0020   11.9790   15.2430 O   0  0  0  0  0  0  0  0  0  0  0  0
   36.9590   11.4460   11.1820 C   0  0  0  0  0  0  0  0  0  0  0  0
   35.7270   11.6050   11.8230 C   0  0  0  0  0  0  0  0  0  0  0  0
   38.1580   11.4700   11.9050 C   0  0  0  0  0  3  0  0  0  0  0  0
   38.1030   11.6570   13.2980 C   0  0  0  0  0  0  0  0  0  0  0  0
   35.6490   11.7930   13.2060 C   0  0  0  0  0  3  0  0  0  0  0  0
   36.8580   11.8100   13.8980 C   0  0  0  0  0  0  0  0  0  0  0  0
   39.0530   11.7400   14.3500 C   0  0  0  0  0  0  0  0  0  0  0  0
   38.3330   11.9350   15.5070 C   0  0  0  0  0  0  0  0  0  0  0  0
   34.5090   11.5800   11.0710 N   0  0  0  0  0  0  0  0  0  0  0  0
   34.2990   12.7940    9.8650 S   0  0  0  0  0  0  0  0  0  0  0  0
   34.3720   12.1850    8.5500 O   0  0  0  0  0  0  0  0  0  0  0  0
   35.1180   13.9520   10.1770 O   0  0  0  0  0  0  0  0  0  0  0  0
   32.6000   13.2580   10.1240 C   0  0  0  0  0  1  0  0  0  0  0  0
   33.2900   11.0700   11.7590 C   0  0  0  0  0  2  0  0  0  0  0  0
   32.8800    9.7410   11.1510 C   0  0  0  0  0  2  0  0  0  0  0  0
   33.4070    8.6800   11.9380 O   0  0  0  0  0  0  0  0  0  0  0  0
   34.3740    8.7780   11.9540 H   0  0  0  0  0  0  0  0  0  0  0  0
   37.0260   11.2460    9.7020 C   0  0  0  0  0  3  0  0  0  0  0  0
   38.2870   10.7190    9.0970 C   0  0  0  0  0  2  0  0  0  0  0  0
   37.8900   12.1510    8.8850 C   0  0  0  0  0  2  0  0  0  0  0  0
   40.4810   11.6420   14.2680 C   0  0  0  0  0  0  0  0  0  0  0  0
   41.2160   12.6360   14.0900 O   0  0  0  0  0  0  0  0  0  0  0  0
   41.0400   10.3640   14.4290 N   0  0  0  0  0  0  0  0  0  0  0  0
   42.4620   10.1060   14.4020 C   0  0  0  0  0  1  0  0  0  0  0  0
   40.4430    9.5860   14.6880 H   0  0  0  0  0  0  0  0  0  0  0  0
   38.6820   12.0980   16.8910 C   0  0  0  0  0  0  0  0  0  0  0  0
   38.2030   13.1960   17.6110 C   0  0  0  0  0  3  0  0  0  0  0  0
   38.5430   13.3550   18.9550 C   0  0  0  0  0  3  0  0  0  0  0  0
   39.3600   12.4150   19.5840 C   0  0  0  0  0  0  0  0  0  0  0  0
   39.6860   12.5680   20.8740 F   0  0  0  0  0  0  0  0  0  0  0  0
   39.8400   11.3170   18.8680 C   0  0  0  0  0  3  0  0  0  0  0  0
   39.5010   11.1600   17.5250 C   0  0  0  0  0  3  0  0  0  0  0  0
  1  9  1  0  0  0  0
  2  3  2  0  0  0  0
  2  4  1  0  0  0  0
  3  6  1  0  0  0  0
  4  5  2  0  0  0  0
  5  7  1  0  0  0  0
  5  8  1  0  0  0  0
  6  7  2  0  0  0  0
  7  1  1  0  0  0  0
  8  9  2  0  0  0  0
  9 27  1  0  0  0  0
 10 15  1  0  0  0  0
 10  3  1  0  0  0  0
 11 14  1  0  0  0  0
 11 13  2  0  0  0  0
 11 10  1  0  0  0  0
 12 11  2  0  0  0  0
 16 15  1  0  0  0  0
 16 17  1  0  0  0  0
 17 18  1  0  0  0  0
 19  2  1  0  0  0  0
 20 19  1  0  0  0  0
 21 20  1  0  0  0  0
 21 19  1  0  0  0  0
 22  8  1  0  0  0  0
 22 24  1  0  0  0  0
 23 22  2  0  0  0  0
 24 26  1  0  0  0  0
 25 24  1  0  0  0  0
 27 33  2  0  0  0  0
 27 28  1  0  0  0  0
 28 29  2  0  0  0  0
 29 30  1  0  0  0  0
 30 31  1  0  0  0  0
 32 30  2  0  0  0  0
 33 32  1  0  0  0  0
M  END
>  <minimizedAffinity>
-7.08806849

$$$$

 OpenBabel09052217133D

 33 36  0  0  0  0  0  0  0  0999 V2000
   17.8350    8.6840   21.3710 O   0  0  0  0  0  0  0  0  0  0  0  0
   16.6160    8.3430   17.4760 C   0  0  0  0  0  0  0  0  0  0  0  0
   17.1460    7.2030   18.0860 C   0  0  0  0  0  0  0  0  0  0  0  0
   16.5080    9.5530   18.1740 C   0  0  0  0  0  3  0  0  0  0  0  0
   16.9450    9.6020   19.5100 C   0  0  0  0  0  0  0  0  0  0  0  0
   17.5860    7.2290   19.4130 C   0  0  0  0  0  3  0  0  0  0  0  0
   17.4670    8.4460   20.0810 C   0  0  0  0  0  0  0  0  0  0  0  0
   17.0030   10.5950   20.5240 C   0  0  0  0  0  0  0  0  0  0  0  0
   17.5510    9.9860   21.6300 C   0  0  0  0  0  0  0  0  0  0  0  0
   17.2500    5.9730   17.3610 N   0  0  0  0  0  0  0  0  0  0  0  0
   16.0370    4.7810   17.6460 S   0  0  0  0  0  0  0  0  0  0  0  0
   14.7800    5.4390   17.9550 O   0  0  0  0  0  0  0  0  0  0  0  0
   16.5520    3.7470   18.5240 O   0  0  0  0  0  0  0  0  0  0  0  0
   15.8580    4.0650   16.0260 C   0  0  0  0  0  1  0  0  0  0  0  0
   18.6180    5.4980   17.0110 C   0  0  0  0  0  2  0  0  0  0  0  0
   19.0060    6.0230   15.6410 C   0  0  0  0  0  2  0  0  0  0  0  0
   19.7150    5.0130   14.9340 O   0  0  0  0  0  0  0  0  0  0  0  0
   20.4990    4.7810   15.4590 H   0  0  0  0  0  0  0  0  0  0  0  0
   16.1500    8.2990   16.0560 C   0  0  0  0  0  3  0  0  0  0  0  0
   16.9120    9.0580   15.0180 C   0  0  0  0  0  2  0  0  0  0  0  0
   15.5530    9.5260   15.4480 C   0  0  0  0  0  2  0  0  0  0  0  0
   16.5900   11.9660   20.4500 C   0  0  0  0  0  0  0  0  0  0  0  0
   15.4570   12.3490   20.8100 O   0  0  0  0  0  0  0  0  0  0  0  0
   17.5360   12.8890   19.9750 N   0  0  0  0  0  0  0  0  0  0  0  0
   17.2810   14.3080   19.8700 C   0  0  0  0  0  1  0  0  0  0  0  0
   18.4870   12.5840   19.7970 H   0  0  0  0  0  0  0  0  0  0  0  0
   17.8740   10.4240   22.9600 C   0  0  0  0  0  0  0  0  0  0  0  0
   16.8800   10.9590   23.7840 C   0  0  0  0  0  3  0  0  0  0  0  0
   17.1940   11.3860   25.0750 C   0  0  0  0  0  3  0  0  0  0  0  0
   18.5030   11.2770   25.5460 C   0  0  0  0  0  0  0  0  0  0  0  0
   18.8030   11.6860   26.7850 F   0  0  0  0  0  0  0  0  0  0  0  0
   19.4980   10.7440   24.7270 C   0  0  0  0  0  3  0  0  0  0  0  0
   19.1830   10.3190   23.4360 C   0  0  0  0  0  3  0  0  0  0  0  0
  1  9  1  0  0  0  0
  2  3  2  0  0  0  0
  2  4  1  0  0  0  0
  3  6  1  0  0  0  0
  4  5  2  0  0  0  0
  5  7  1  0  0  0  0
  5  8  1  0  0  0  0
  6  7  2  0  0  0  0
  7  1  1  0  0  0  0
  8  9  2  0  0  0  0
  9 27  1  0  0  0  0
 10 11  1  0  0  0  0
 10  3  1  0  0  0  0
 11 12  2  0  0  0  0
 11 13  2  0  0  0  0
 14 11  1  0  0  0  0
 15 10  1  0  0  0  0
 16 15  1  0  0  0  0
 17 18  1  0  0  0  0
 17 16  1  0  0  0  0
 19  2  1  0  0  0  0
 20 21  1  0  0  0  0
 20 19  1  0  0  0  0
 21 19  1  0  0  0  0
 22  8  1  0  0  0  0
 22 23  2  0  0  0  0
 24 22  1  0  0  0  0
 25 24  1  0  0  0  0
 26 24  1  0  0  0  0
 27 33  2  0  0  0  0
 27 28  1  0  0  0  0
 28 29  2  0  0  0  0
 29 30  1  0  0  0  0
 30 31  1  0  0  0  0
 32 30  2  0  0  0  0
 33 32  1  0  0  0  0
M  END
>  <minimizedAffinity>
-7.01111031

$$$$

 OpenBabel09052217133D

 33 36  0  0  0  0  0  0  0  0999 V2000
   17.0430    8.9920   16.6590 O   0  0  0  0  0  0  0  0  0  0  0  0
   13.5680   11.1210   17.0610 C   0  0  0  0  0  0  0  0  0  0  0  0
   14.7410   11.8430   16.8280 C   0  0  0  0  0  0  0  0  0  0  0  0
   13.5850    9.7230   17.1520 C   0  0  0  0  0  3  0  0  0  0  0  0
   14.8120    9.0520   17.0050 C   0  0  0  0  0  0  0  0  0  0  0  0
   15.9720   11.1970   16.6780 C   0  0  0  0  0  3  0  0  0  0  0  0
   15.9580    9.8070   16.7740 C   0  0  0  0  0  0  0  0  0  0  0  0
   15.2390    7.6980   17.0280 C   0  0  0  0  0  0  0  0  0  0  0  0
   16.5990    7.7170   16.8140 C   0  0  0  0  0  0  0  0  0  0  0  0
   14.7080   13.2710   16.7360 N   0  0  0  0  0  0  0  0  0  0  0  0
   14.6090   13.9600   15.1580 S   0  0  0  0  0  0  0  0  0  0  0  0
   13.5270   14.9270   15.1220 O   0  0  0  0  0  0  0  0  0  0  0  0
   14.6850   12.9150   14.1530 O   0  0  0  0  0  0  0  0  0  0  0  0
   16.1280   14.8850   15.0810 C   0  0  0  0  0  1  0  0  0  0  0  0
   15.4360   14.0410   17.7830 C   0  0  0  0  0  2  0  0  0  0  0  0
   14.5680   15.1870   18.2700 C   0  0  0  0  0  2  0  0  0  0  0  0
   15.1970   16.4220   17.9550 O   0  0  0  0  0  0  0  0  0  0  0  0
   16.0670   16.4280   18.3890 H   0  0  0  0  0  0  0  0  0  0  0  0
   12.2590   11.8260   17.2200 C   0  0  0  0  0  3  0  0  0  0  0  0
   11.1420   11.1320   17.9300 C   0  0  0  0  0  2  0  0  0  0  0  0
   11.0750   11.3440   16.4460 C   0  0  0  0  0  2  0  0  0  0  0  0
   14.4480    6.5200   17.2320 C   0  0  0  0  0  0  0  0  0  0  0  0
   14.1270    6.1110   18.3680 O   0  0  0  0  0  0  0  0  0  0  0  0
   14.0120    5.8410   16.0830 N   0  0  0  0  0  0  0  0  0  0  0  0
   13.1850    4.6570   16.1220 C   0  0  0  0  0  1  0  0  0  0  0  0
   14.1800    6.2470   15.1680 H   0  0  0  0  0  0  0  0  0  0  0  0
   17.6150    6.7060   16.7210 C   0  0  0  0  0  0  0  0  0  0  0  0
   17.8060    5.8040   17.7730 C   0  0  0  0  0  3  0  0  0  0  0  0
   18.7930    4.8230   17.6840 C   0  0  0  0  0  3  0  0  0  0  0  0
   19.5920    4.7380   16.5430 C   0  0  0  0  0  0  0  0  0  0  0  0
   20.5390    3.7960   16.4580 F   0  0  0  0  0  0  0  0  0  0  0  0
   19.4040    5.6360   15.4920 C   0  0  0  0  0  3  0  0  0  0  0  0
   18.4180    6.6180   15.5820 C   0  0  0  0  0  3  0  0  0  0  0  0
  1  7  1  0  0  0  0
  1  9  1  0  0  0  0
  2  4  1  0  0  0  0
  2 19  1  0  0  0  0
  3  2  2  0  0  0  0
  5  8  1  0  0  0  0
  5  4  2  0  0  0  0
  6  7  2  0  0  0  0
  6  3  1  0  0  0  0
  7  5  1  0  0  0  0
  8 22  1  0  0  0  0
  9  8  2  0  0  0  0
 10  3  1  0  0  0  0
 10 15  1  0  0  0  0
 11 10  1  0  0  0  0
 12 11  2  0  0  0  0
 13 11  2  0  0  0  0
 14 11  1  0  0  0  0
 15 16  1  0  0  0  0
 17 16  1  0  0  0  0
 17 18  1  0  0  0  0
 19 20  1  0  0  0  0
 21 19  1  0  0  0  0
 21 20  1  0  0  0  0
 22 23  2  0  0  0  0
 24 25  1  0  0  0  0
 24 22  1  0  0  0  0
 26 24  1  0  0  0  0
 27  9  1  0  0  0  0
 27 28  1  0  0  0  0
 29 28  2  0  0  0  0
 30 29  1  0  0  0  0
 31 30  1  0  0  0  0
 32 33  1  0  0  0  0
 32 30  2  0  0  0  0
 33 27  2  0  0  0  0
M  END
>  <minimizedAffinity>
-7.00232935

$$$$

 OpenBabel09052217133D

 33 36  0  0  0  0  0  0  0  0999 V2000
    7.4370   29.9650    1.7050 O   0  0  0  0  0  0  0  0  0  0  0  0
    6.6780   30.7690   -2.2390 C   0  0  0  0  0  0  0  0  0  0  0  0
    5.9400   29.7460   -1.6370 C   0  0  0  0  0  0  0  0  0  0  0  0
    7.6380   31.4890   -1.5160 C   0  0  0  0  0  3  0  0  0  0  0  0
    7.8500   31.1630   -0.1640 C   0  0  0  0  0  0  0  0  0  0  0  0
    6.1340   29.4050   -0.2950 C   0  0  0  0  0  3  0  0  0  0  0  0
    7.0960   30.1380    0.3970 C   0  0  0  0  0  0  0  0  0  0  0  0
    8.6950   31.6350    0.8740 C   0  0  0  0  0  0  0  0  0  0  0  0
    8.4060   30.8760    1.9850 C   0  0  0  0  0  0  0  0  0  0  0  0
    4.9620   29.0190   -2.3880 N   0  0  0  0  0  0  0  0  0  0  0  0
    3.3110   29.4780   -2.1900 S   0  0  0  0  0  0  0  0  0  0  0  0
    3.2330   30.6190   -1.2950 O   0  0  0  0  0  0  0  0  0  0  0  0
    2.4940   28.3040   -1.9450 O   0  0  0  0  0  0  0  0  0  0  0  0
    2.9140   30.0750   -3.8190 C   0  0  0  0  0  1  0  0  0  0  0  0
    5.2510   27.5880   -2.6830 C   0  0  0  0  0  2  0  0  0  0  0  0
    5.1180   27.3380   -4.1750 C   0  0  0  0  0  2  0  0  0  0  0  0
    5.1780   25.9400   -4.4260 O   0  0  0  0  0  0  0  0  0  0  0  0
    6.0290   25.6160   -4.0870 H   0  0  0  0  0  0  0  0  0  0  0  0
    6.4590   31.1210   -3.6750 C   0  0  0  0  0  3  0  0  0  0  0  0
    7.6320   31.5220   -4.5110 C   0  0  0  0  0  2  0  0  0  0  0  0
    6.6100   32.5440   -4.1060 C   0  0  0  0  0  2  0  0  0  0  0  0
    9.6700   32.6860    0.8180 C   0  0  0  0  0  0  0  0  0  0  0  0
    9.3730   33.8900    0.9700 O   0  0  0  0  0  0  0  0  0  0  0  0
   11.0050   32.3020    0.6110 N   0  0  0  0  0  0  0  0  0  0  0  0
   12.1050   33.2390    0.5600 C   0  0  0  0  0  1  0  0  0  0  0  0
   11.2480   31.3170    0.6070 H   0  0  0  0  0  0  0  0  0  0  0  0
    8.8950   30.8450    3.3350 C   0  0  0  0  0  0  0  0  0  0  0  0
   10.2310   30.5230    3.5900 C   0  0  0  0  0  3  0  0  0  0  0  0
   10.7070   30.4910    4.9010 C   0  0  0  0  0  3  0  0  0  0  0  0
    9.8480   30.7830    5.9620 C   0  0  0  0  0  0  0  0  0  0  0  0
   10.3050   30.7530    7.2200 F   0  0  0  0  0  0  0  0  0  0  0  0
    8.5140   31.1050    5.7110 C   0  0  0  0  0  3  0  0  0  0  0  0
    8.0390   31.1350    4.4000 C   0  0  0  0  0  3  0  0  0  0  0  0
  1  9  1  0  0  0  0
  2  3  2  0  0  0  0
  2  4  1  0  0  0  0
  3  6  1  0  0  0  0
  4  5  2  0  0  0  0
  5  7  1  0  0  0  0
  5  8  1  0  0  0  0
  6  7  2  0  0  0  0
  7  1  1  0  0  0  0
  8  9  2  0  0  0  0
  9 27  1  0  0  0  0
 10 11  1  0  0  0  0
 10  3  1  0  0  0  0
 11 13  2  0  0  0  0
 11 12  2  0  0  0  0
 14 11  1  0  0  0  0
 15 10  1  0  0  0  0
 16 15  1  0  0  0  0
 17 16  1  0  0  0  0
 17 18  1  0  0  0  0
 19  2  1  0  0  0  0
 20 21  1  0  0  0  0
 20 19  1  0  0  0  0
 21 19  1  0  0  0  0
 22  8  1  0  0  0  0
 22 23  2  0  0  0  0
 24 22  1  0  0  0  0
 25 24  1  0  0  0  0
 26 24  1  0  0  0  0
 27 28  2  0  0  0  0
 27 33  1  0  0  0  0
 28 29  1  0  0  0  0
 29 30  2  0  0  0  0
 30 31  1  0  0  0  0
 32 30  1  0  0  0  0
 33 32  2  0  0  0  0
M  END
>  <minimizedAffinity>
-6.99201536

$$$$
