
 OpenBabel08152221323D

 33 36  0  0  0  0  0  0  0  0999 V2000
   19.3010    9.3460    6.3450 C   0  0  0  0  0  0  0  0  0  0  0  0
   18.1520    9.7880    5.6990 C   0  0  0  0  0  0  0  0  0  0  0  0
   17.5760   10.7930    6.4290 O   0  0  0  0  0  0  0  0  0  0  0  0
   18.3640   11.0250    7.5070 C   0  0  0  0  0  0  0  0  0  0  0  0
   18.1370   11.9910    8.4750 C   0  0  0  0  0  3  0  0  0  0  0  0
   19.0870   12.1010    9.5070 C   0  0  0  0  0  0  0  0  0  0  0  0
   20.2480   11.2850    9.5630 C   0  0  0  0  0  0  0  0  0  0  0  0
   20.4040   10.3210    8.5330 C   0  0  0  0  0  3  0  0  0  0  0  0
   19.4520   10.1740    7.5030 C   0  0  0  0  0  0  0  0  0  0  0  0
   17.4270    9.4270    4.4800 C   0  0  0  0  0  0  0  0  0  0  0  0
   16.3040   10.1740    4.0770 C   0  0  0  0  0  3  0  0  0  0  0  0
   15.6000    9.8470    2.9150 C   0  0  0  0  0  3  0  0  0  0  0  0
   16.0120    8.7670    2.1490 C   0  0  0  0  0  0  0  0  0  0  0  0
   15.3390    8.4500    1.0350 F   0  0  0  0  0  0  0  0  0  0  0  0
   17.1140    8.0090    2.5230 C   0  0  0  0  0  3  0  0  0  0  0  0
   17.8180    8.3380    3.6860 C   0  0  0  0  0  3  0  0  0  0  0  0
   19.1880    6.5950    7.4350 C   0  0  0  0  0  1  0  0  0  0  0  0
   20.1390    7.0790    6.4620 N   0  0  0  0  0  0  0  0  0  0  0  0
   20.1910    8.3130    5.8640 C   0  0  0  0  0  0  0  0  0  0  0  0
   20.9740    8.4990    4.9380 O   0  0  0  0  0  0  0  0  0  0  0  0
   20.8260    6.4320    6.0950 H   0  0  0  0  0  0  0  0  0  0  0  0
   21.3040   11.4380   10.6510 C   0  0  0  0  0  3  0  0  0  0  0  0
   21.4680   10.3220   11.6610 C   0  0  0  0  0  2  0  0  0  0  0  0
   22.5840   10.6340   10.7140 C   0  0  0  0  0  2  0  0  0  0  0  0
   18.8120   13.1690   10.4340 N   0  0  0  0  0  0  0  0  0  0  0  0
   18.3270   12.8270   12.0120 S   0  0  0  0  0  0  0  0  0  0  0  0
   17.7560   11.1390   11.9490 C   0  0  0  0  0  1  0  0  0  0  0  0
   19.4740   12.8950   12.8910 O   0  0  0  0  0  0  0  0  0  0  0  0
   17.1740   13.6710   12.2660 O   0  0  0  0  0  0  0  0  0  0  0  0
   19.5620   14.4440   10.2250 C   0  0  0  0  0  2  0  0  0  0  0  0
   18.6800   15.4680    9.5050 C   0  0  0  0  0  2  0  0  0  0  0  0
   19.4430   16.4360    8.7930 O   0  0  0  0  0  0  0  0  0  0  0  0
   20.1240   16.7980    9.4010 H   0  0  0  0  0  0  0  0  0  0  0  0
  1  9  1  0  0  0  0
  2  1  2  0  0  0  0
  2  3  1  0  0  0  0
  3  4  1  0  0  0  0
  4  5  1  0  0  0  0
  5  6  2  0  0  0  0
  6  7  1  0  0  0  0
  6 25  1  0  0  0  0
  7 22  1  0  0  0  0
  8  7  2  0  0  0  0
  9  4  2  0  0  0  0
  9  8  1  0  0  0  0
 10  2  1  0  0  0  0
 11 10  1  0  0  0  0
 12 11  2  0  0  0  0
 13 15  2  0  0  0  0
 13 12  1  0  0  0  0
 14 13  1  0  0  0  0
 15 16  1  0  0  0  0
 16 10  2  0  0  0  0
 18 17  1  0  0  0  0
 19  1  1  0  0  0  0
 19 18  1  0  0  0  0
 20 19  2  0  0  0  0
 21 18  1  0  0  0  0
 22 24  1  0  0  0  0
 22 23  1  0  0  0  0
 24 23  1  0  0  0  0
 25 26  1  0  0  0  0
 26 29  2  0  0  0  0
 26 28  2  0  0  0  0
 27 26  1  0  0  0  0
 30 25  1  0  0  0  0
 31 30  1  0  0  0  0
 32 33  1  0  0  0  0
 32 31  1  0  0  0  0
M  END
>  <minimizedAffinity>
-10.5112438

$$$$
