
 OpenBabel09132204463D

 30 33  0  0  0  0  0  0  0  0999 V2000
    4.3530   -7.4510   -0.0610 N   0  0  0  0  0  0  0  0  0  0  0  0
    5.4840   -6.8650    0.4940 C   0  0  0  0  0  0  0  0  0  0  0  0
    5.4480   -5.5060    0.1910 C   0  0  0  0  0  0  0  0  0  0  0  0
    4.2910   -5.2890   -0.6280 C   0  0  0  0  0  0  0  0  0  0  0  0
    3.7380   -4.1520   -1.2570 C   0  0  0  0  0  3  0  0  0  0  0  0
    2.5800   -4.2690   -2.0330 C   0  0  0  0  0  3  0  0  0  0  0  0
    1.9450   -5.5010   -2.2110 C   0  0  0  0  0  0  0  0  0  0  0  0
    2.4910   -6.6430   -1.5930 C   0  0  0  0  0  3  0  0  0  0  0  0
    3.6490   -6.5180   -0.7990 C   0  0  0  0  0  0  0  0  0  0  0  0
    6.4910   -7.6000    1.2590 C   0  0  0  0  0  0  0  0  0  0  0  0
    6.1160   -8.5310    2.2290 C   0  0  0  0  0  3  0  0  0  0  0  0
    7.0980   -9.2180    2.9400 C   0  0  0  0  0  3  0  0  0  0  0  0
    8.4260   -8.9430    2.6580 C   0  0  0  0  0  3  0  0  0  0  0  0
    8.8300   -8.0440    1.7350 N   0  0  0  0  0  0  0  0  0  0  0  0
    7.8520   -7.3870    1.0620 C   0  0  0  0  0  3  0  0  0  0  0  0
    6.4710   -4.4740    0.6210 C   0  0  0  0  0  3  0  0  0  0  0  0
    6.6020   -4.3710    2.1490 C   0  0  0  0  0  2  0  0  0  0  0  0
    7.6160   -3.3010    2.5520 C   0  0  0  0  0  2  0  0  0  0  0  0
    8.9700   -3.5300    1.8870 C   0  0  0  0  0  2  0  0  0  0  0  0
    8.8430   -3.6190    0.3700 C   0  0  0  0  0  2  0  0  0  0  0  0
    7.8370   -4.6890   -0.0510 C   0  0  0  0  0  2  0  0  0  0  0  0
    0.6840   -5.5990   -3.0550 C   0  0  0  0  0  0  0  0  0  0  0  0
   -0.0140   -6.6550   -2.9410 O   0  0  0  0  0  1  0  0  0  0  0  0
    0.4140   -4.6100   -3.8090 O   0  0  0  0  0  0  0  0  0  0  0  0
    3.9970   -8.8650    0.0740 C   0  0  0  0  0  2  0  0  0  0  0  0
    1.7480  -10.9030    2.4250 C   0  0  0  0  0  1  0  0  0  0  0  0
    2.4330  -10.4790    1.2150 N   0  0  0  0  0  0  0  0  0  0  0  0
    2.4970  -11.4530    0.1430 C   0  0  0  0  0  1  0  0  0  0  0  0
    3.0520   -9.2360    1.2030 C   0  0  0  0  0  0  0  0  0  0  0  0
    2.7710   -8.3740    2.0440 O   0  0  0  0  0  0  0  0  0  0  0  0
  1 25  1  0  0  0  0
  1  2  1  0  0  0  0
  2 10  1  0  0  0  0
  3  2  2  0  0  0  0
  3 16  1  0  0  0  0
  4  3  1  0  0  0  0
  5  4  2  0  0  0  0
  6  5  1  0  0  0  0
  7  6  2  0  0  0  0
  7  8  1  0  0  0  0
  8  9  2  0  0  0  0
  9  4  1  0  0  0  0
  9  1  1  0  0  0  0
 10 11  1  0  0  0  0
 11 12  2  0  0  0  0
 13 12  1  0  0  0  0
 14 13  2  0  0  0  0
 15 10  2  0  0  0  0
 15 14  1  0  0  0  0
 16 17  1  0  0  0  0
 17 18  1  0  0  0  0
 19 18  1  0  0  0  0
 20 19  1  0  0  0  0
 21 20  1  0  0  0  0
 21 16  1  0  0  0  0
 22 23  1  0  0  0  0
 22  7  1  0  0  0  0
 24 22  2  0  0  0  0
 25 29  1  0  0  0  0
 27 26  1  0  0  0  0
 28 27  1  0  0  0  0
 29 27  1  0  0  0  0
 29 30  2  0  0  0  0
M  END
>  <minimizedAffinity>
18.8446751

$$$$
