
 OpenBabel08292220033D

 27 29  0  0  1  0  0  0  0  0999 V2000
  -26.2880  -15.7960    0.1470 C   0  0  0  0  0  0  0  0  0  0  0  0
  -25.1550  -15.0960   -0.3780 C   0  0  0  0  0  3  0  0  0  0  0  0
  -25.4950  -14.0450   -1.2060 C   0  0  0  0  0  0  0  0  0  0  0  0
  -27.1950  -13.9140   -1.3500 S   0  0  0  0  0  0  0  0  0  0  0  0
  -27.4810  -15.2180   -0.2670 C   0  0  0  0  0  0  0  0  0  0  0  0
  -24.6080  -13.1330   -1.9410 C   0  0  0  0  0  0  0  0  0  0  0  0
  -23.2230  -13.1160   -1.7180 C   0  0  0  0  0  3  0  0  0  0  0  0
  -22.3920  -12.2550   -2.4400 C   0  0  0  0  0  3  0  0  0  0  0  0
  -22.9350  -11.4010   -3.3970 C   0  0  0  0  0  3  0  0  0  0  0  0
  -24.3070  -11.4070   -3.6340 C   0  0  0  0  0  3  0  0  0  0  0  0
  -25.1380  -12.2690   -2.9110 C   0  0  0  0  0  3  0  0  0  0  0  0
  -26.1870  -16.9120    1.0040 N   0  0  0  0  0  0  0  0  0  0  0  0
  -26.5140  -18.1420    0.4090 C   0  0  0  0  0  0  0  0  0  0  0  0
  -26.3470  -18.3550   -0.7990 O   0  0  0  0  0  0  0  0  0  0  0  0
  -27.0290  -19.2700    1.3180 C   0  0  1  0  0  3  0  0  0  0  0  0
  -28.4640  -19.6880    0.9470 C   0  0  0  0  0  2  0  0  0  0  0  0
  -28.5690  -20.6320   -0.2510 C   0  0  0  0  0  2  0  0  0  0  0  0
  -27.6190  -21.8310   -0.1670 C   0  0  2  0  0  3  0  0  0  0  0  0
  -28.0860  -22.8530    0.8720 C   0  0  0  0  0  1  0  0  0  0  0  0
  -26.1860  -21.3580    0.0980 C   0  0  0  0  0  2  0  0  0  0  0  0
  -26.0650  -20.4640    1.3310 C   0  0  0  0  0  2  0  0  0  0  0  0
  -24.3380  -17.0040    2.6680 C   0  0  0  0  0  1  0  0  0  0  0  0
  -25.8260  -16.7290    2.4270 C   0  0  0  0  0  3  0  0  0  0  0  0
  -26.2130  -15.3570    2.9890 C   0  0  0  0  0  1  0  0  0  0  0  0
  -28.8610  -15.5940    0.1770 C   0  0  0  0  0  0  0  0  0  0  0  0
  -29.2070  -15.2530    1.3520 O   0  0  0  0  0  1  0  0  0  0  0  0
  -29.5870  -16.2690   -0.6250 O   0  0  0  0  0  0  0  0  0  0  0  0
  1 12  1  0  0  0  0
  2  1  1  0  0  0  0
  3  2  2  0  0  0  0
  4  3  1  0  0  0  0
  4  5  1  0  0  0  0
  5  1  2  0  0  0  0
  5 25  1  0  0  0  0
  6  7  1  0  0  0  0
  6  3  1  0  0  0  0
  8  7  2  0  0  0  0
  9  8  1  0  0  0  0
 10  9  2  0  0  0  0
 10 11  1  0  0  0  0
 11  6  2  0  0  0  0
 12 23  1  0  0  0  0
 13 12  1  0  0  0  0
 14 13  2  0  0  0  0
 15 13  1  6  0  0  0
 15 21  1  0  0  0  0
 16 15  1  0  0  0  0
 17 18  1  0  0  0  0
 17 16  1  0  0  0  0
 18 20  1  0  0  0  0
 18 19  1  1  0  0  0
 20 21  1  0  0  0  0
 23 22  1  0  0  0  0
 23 24  1  0  0  0  0
 25 26  1  0  0  0  0
 27 25  2  0  0  0  0
M  END
>  <minimizedAffinity>
-7.96213102

$$$$
