
 OpenBabel08292220033D

 27 29  0  0  1  0  0  0  0  0999 V2000
  -20.7420   -1.4060    6.9780 C   0  0  0  0  0  0  0  0  0  0  0  0
  -21.3820   -2.0030    8.1100 C   0  0  0  0  0  3  0  0  0  0  0  0
  -20.7080   -3.1010    8.6050 C   0  0  0  0  0  0  0  0  0  0  0  0
  -19.2980   -3.4090    7.6870 S   0  0  0  0  0  0  0  0  0  0  0  0
  -19.5520   -2.0500    6.6660 C   0  0  0  0  0  0  0  0  0  0  0  0
  -21.0790   -3.9750    9.7270 C   0  0  0  0  0  0  0  0  0  0  0  0
  -22.3180   -4.6310    9.7690 C   0  0  0  0  0  3  0  0  0  0  0  0
  -22.6450   -5.4730   10.8350 C   0  0  0  0  0  3  0  0  0  0  0  0
  -21.7370   -5.6730   11.8720 C   0  0  0  0  0  3  0  0  0  0  0  0
  -20.5010   -5.0320   11.8440 C   0  0  0  0  0  3  0  0  0  0  0  0
  -20.1740   -4.1900   10.7770 C   0  0  0  0  0  3  0  0  0  0  0  0
  -21.2540   -0.2820    6.2950 N   0  0  0  0  0  0  0  0  0  0  0  0
  -21.8290   -0.5640    5.0450 C   0  0  0  0  0  0  0  0  0  0  0  0
  -22.3620   -1.6540    4.7960 O   0  0  0  0  0  0  0  0  0  0  0  0
  -21.8480    0.5530    3.9890 C   0  0  1  0  0  3  0  0  0  0  0  0
  -20.9860    0.1920    2.7650 C   0  0  0  0  0  2  0  0  0  0  0  0
  -21.6590   -0.7420    1.7590 C   0  0  0  0  0  2  0  0  0  0  0  0
  -23.0710   -0.2980    1.3640 C   0  0  2  0  0  3  0  0  0  0  0  0
  -23.0440    0.9230    0.4410 C   0  0  0  0  0  1  0  0  0  0  0  0
  -23.9210   -0.0530    2.6140 C   0  0  0  0  0  2  0  0  0  0  0  0
  -23.2820    0.9290    3.5950 C   0  0  0  0  0  2  0  0  0  0  0  0
  -22.3850    1.5220    7.5850 C   0  0  0  0  0  1  0  0  0  0  0  0
  -21.1050    1.0720    6.8730 C   0  0  0  0  0  3  0  0  0  0  0  0
  -19.8970    1.2150    7.8040 C   0  0  0  0  0  1  0  0  0  0  0  0
  -18.5520   -1.6350    5.6310 C   0  0  0  0  0  0  0  0  0  0  0  0
  -18.6810   -2.1320    4.4660 O   0  0  0  0  0  0  0  0  0  0  0  0
  -17.6110   -0.8520    5.9850 O   0  0  0  0  0  1  0  0  0  0  0  0
  1  2  1  0  0  0  0
  2  3  2  0  0  0  0
  3  6  1  0  0  0  0
  4  3  1  0  0  0  0
  5  1  2  0  0  0  0
  5  4  1  0  0  0  0
  6  7  2  0  0  0  0
  6 11  1  0  0  0  0
  7  8  1  0  0  0  0
  8  9  2  0  0  0  0
 10  9  1  0  0  0  0
 11 10  2  0  0  0  0
 12 23  1  0  0  0  0
 12  1  1  0  0  0  0
 13 12  1  0  0  0  0
 14 13  2  0  0  0  0
 15 13  1  1  0  0  0
 16 15  1  0  0  0  0
 17 16  1  0  0  0  0
 18 19  1  1  0  0  0
 18 17  1  0  0  0  0
 18 20  1  0  0  0  0
 20 21  1  0  0  0  0
 21 15  1  0  0  0  0
 23 22  1  0  0  0  0
 23 24  1  0  0  0  0
 25 27  1  0  0  0  0
 25  5  1  0  0  0  0
 26 25  2  0  0  0  0
M  END
>  <minimizedAffinity>
-7.22011375

$$$$
