
 OpenBabel08292220033D

 27 29  0  0  1  0  0  0  0  0999 V2000
  -18.8010   -2.7540    4.7210 C   0  0  0  0  0  0  0  0  0  0  0  0
  -19.7080   -2.3700    3.6820 C   0  0  0  0  0  3  0  0  0  0  0  0
  -19.6330   -1.0300    3.3570 C   0  0  0  0  0  0  0  0  0  0  0  0
  -18.4610   -0.2390    4.3200 S   0  0  0  0  0  0  0  0  0  0  0  0
  -18.0130   -1.6870    5.1310 C   0  0  0  0  0  0  0  0  0  0  0  0
  -20.4250   -0.2810    2.3720 C   0  0  0  0  0  0  0  0  0  0  0  0
  -21.6090   -0.8020    1.8310 C   0  0  0  0  0  3  0  0  0  0  0  0
  -22.3590   -0.0660    0.9090 C   0  0  0  0  0  3  0  0  0  0  0  0
  -21.9360    1.2020    0.5180 C   0  0  0  0  0  3  0  0  0  0  0  0
  -20.7630    1.7350    1.0470 C   0  0  0  0  0  3  0  0  0  0  0  0
  -20.0140    0.9990    1.9690 C   0  0  0  0  0  3  0  0  0  0  0  0
  -18.7080   -4.0670    5.2290 N   0  0  0  0  0  0  0  0  0  0  0  0
  -19.5630   -4.3420    6.3100 C   0  0  0  0  0  0  0  0  0  0  0  0
  -20.6520   -3.7680    6.4500 O   0  0  0  0  0  0  0  0  0  0  0  0
  -19.1460   -5.4410    7.2990 C   0  0  1  0  0  3  0  0  0  0  0  0
  -19.2370   -4.9570    8.7580 C   0  0  0  0  0  2  0  0  0  0  0  0
  -20.6450   -4.9790    9.3560 C   0  0  0  0  0  2  0  0  0  0  0  0
  -21.3780   -6.3060    9.1390 C   0  0  2  0  0  3  0  0  0  0  0  0
  -20.8170   -7.4160   10.0310 C   0  0  0  0  0  1  0  0  0  0  0  0
  -21.3520   -6.6940    7.6570 C   0  0  0  0  0  2  0  0  0  0  0  0
  -19.9420   -6.7330    7.0700 C   0  0  0  0  0  2  0  0  0  0  0  0
  -17.4780   -4.7580    3.1790 C   0  0  0  0  0  1  0  0  0  0  0  0
  -17.7190   -5.0150    4.6690 C   0  0  0  0  0  3  0  0  0  0  0  0
  -16.3900   -5.0380    5.4300 C   0  0  0  0  0  1  0  0  0  0  0  0
  -16.8730   -1.7340    6.1010 C   0  0  0  0  0  0  0  0  0  0  0  0
  -15.7000   -1.6040    5.6270 O   0  0  0  0  0  0  0  0  0  0  0  0
  -17.1390   -1.9450    7.3300 O   0  0  0  0  0  1  0  0  0  0  0  0
  1  5  2  0  0  0  0
  1 12  1  0  0  0  0
  2  1  1  0  0  0  0
  3  2  2  0  0  0  0
  3  4  1  0  0  0  0
  4  5  1  0  0  0  0
  5 25  1  0  0  0  0
  6  3  1  0  0  0  0
  7  6  2  0  0  0  0
  8  7  1  0  0  0  0
  9  8  2  0  0  0  0
  9 10  1  0  0  0  0
 10 11  2  0  0  0  0
 11  6  1  0  0  0  0
 12 13  1  0  0  0  0
 13 14  2  0  0  0  0
 15 13  1  6  0  0  0
 15 16  1  0  0  0  0
 16 17  1  0  0  0  0
 18 17  1  0  0  0  0
 18 19  1  1  0  0  0
 20 18  1  0  0  0  0
 21 15  1  0  0  0  0
 21 20  1  0  0  0  0
 22 23  1  0  0  0  0
 23 12  1  0  0  0  0
 23 24  1  0  0  0  0
 25 27  1  0  0  0  0
 26 25  2  0  0  0  0
M  END
>  <minimizedAffinity>
-7.42355204

$$$$
