
 OpenBabel08292220033D

 27 29  0  0  1  0  0  0  0  0999 V2000
   -2.7090   -2.6900   11.8940 C   0  0  0  0  0  0  0  0  0  0  0  0
   -2.2500   -1.8160   10.8560 C   0  0  0  0  0  3  0  0  0  0  0  0
   -1.4560   -2.4480    9.9200 C   0  0  0  0  0  0  0  0  0  0  0  0
   -1.2630   -4.1030   10.3080 S   0  0  0  0  0  0  0  0  0  0  0  0
   -2.2810   -3.9940   11.6880 C   0  0  0  0  0  0  0  0  0  0  0  0
   -0.7890   -1.8690    8.7460 C   0  0  0  0  0  0  0  0  0  0  0  0
    0.2010   -2.5710    8.0420 C   0  0  0  0  0  3  0  0  0  0  0  0
    0.8110   -2.0120    6.9160 C   0  0  0  0  0  3  0  0  0  0  0  0
    0.4370   -0.7450    6.4760 C   0  0  0  0  0  3  0  0  0  0  0  0
   -0.5460   -0.0350    7.1610 C   0  0  0  0  0  3  0  0  0  0  0  0
   -1.1560   -0.5950    8.2870 C   0  0  0  0  0  3  0  0  0  0  0  0
   -3.5210   -2.2670   12.9670 N   0  0  0  0  0  0  0  0  0  0  0  0
   -2.8910   -2.2770   14.2230 C   0  0  0  0  0  0  0  0  0  0  0  0
   -1.6720   -2.1010   14.3480 O   0  0  0  0  0  0  0  0  0  0  0  0
   -3.7710   -2.4420   15.4710 C   0  0  1  0  0  3  0  0  0  0  0  0
   -3.6860   -3.8710   16.0410 C   0  0  0  0  0  2  0  0  0  0  0  0
   -2.4510   -4.1470   16.8990 C   0  0  0  0  0  2  0  0  0  0  0  0
   -2.2000   -3.0800   17.9690 C   0  0  2  0  0  3  0  0  0  0  0  0
   -3.2070   -3.1810   19.1170 C   0  0  0  0  0  1  0  0  0  0  0  0
   -2.1890   -1.6840   17.3380 C   0  0  0  0  0  2  0  0  0  0  0  0
   -3.4500   -1.3790   16.5300 C   0  0  0  0  0  2  0  0  0  0  0  0
   -5.1240   -0.4070   12.5580 C   0  0  0  0  0  1  0  0  0  0  0  0
   -4.9400   -1.9170   12.7340 C   0  0  0  0  0  3  0  0  0  0  0  0
   -5.5760   -2.6730   11.5630 C   0  0  0  0  0  1  0  0  0  0  0  0
   -2.6640   -5.2010   12.4900 C   0  0  0  0  0  0  0  0  0  0  0  0
   -3.7890   -5.7370   12.2320 O   0  0  0  0  0  0  0  0  0  0  0  0
   -1.8690   -5.5900   13.4070 O   0  0  0  0  0  1  0  0  0  0  0  0
  1 12  1  0  0  0  0
  2  1  1  0  0  0  0
  3  4  1  0  0  0  0
  3  2  2  0  0  0  0
  4  5  1  0  0  0  0
  5  1  2  0  0  0  0
  5 25  1  0  0  0  0
  6  3  1  0  0  0  0
  7  6  2  0  0  0  0
  8  7  1  0  0  0  0
  9  8  2  0  0  0  0
  9 10  1  0  0  0  0
 10 11  2  0  0  0  0
 11  6  1  0  0  0  0
 12 13  1  0  0  0  0
 13 14  2  0  0  0  0
 15 13  1  6  0  0  0
 15 16  1  0  0  0  0
 15 21  1  0  0  0  0
 16 17  1  0  0  0  0
 17 18  1  0  0  0  0
 18 19  1  1  0  0  0
 20 18  1  0  0  0  0
 21 20  1  0  0  0  0
 22 23  1  0  0  0  0
 23 12  1  0  0  0  0
 24 23  1  0  0  0  0
 25 27  1  0  0  0  0
 26 25  2  0  0  0  0
M  END
>  <minimizedAffinity>
-7.42028332

$$$$
