
 OpenBabel08292220033D

 27 29  0  0  1  0  0  0  0  0999 V2000
  -24.0470   -2.8310    5.5330 C   0  0  0  0  0  0  0  0  0  0  0  0
  -23.1520   -2.7060    6.6440 C   0  0  0  0  0  3  0  0  0  0  0  0
  -23.0050   -3.8740    7.3630 C   0  0  0  0  0  0  0  0  0  0  0  0
  -23.9620   -5.1230    6.6910 S   0  0  0  0  0  0  0  0  0  0  0  0
  -24.5280   -4.1270    5.4100 C   0  0  0  0  0  0  0  0  0  0  0  0
  -22.2020   -4.1120    8.5710 C   0  0  0  0  0  0  0  0  0  0  0  0
  -20.9850   -3.4490    8.7860 C   0  0  0  0  0  3  0  0  0  0  0  0
  -20.2440   -3.6730    9.9500 C   0  0  0  0  0  3  0  0  0  0  0  0
  -20.7120   -4.5610   10.9150 C   0  0  0  0  0  3  0  0  0  0  0  0
  -21.9200   -5.2260   10.7190 C   0  0  0  0  0  3  0  0  0  0  0  0
  -22.6610   -5.0010    9.5540 C   0  0  0  0  0  3  0  0  0  0  0  0
  -24.3630   -1.7670    4.6630 N   0  0  0  0  0  0  0  0  0  0  0  0
  -23.4690   -1.5940    3.5930 C   0  0  0  0  0  0  0  0  0  0  0  0
  -22.8370   -2.5410    3.1040 O   0  0  0  0  0  0  0  0  0  0  0  0
  -23.3380   -0.1910    2.9790 C   0  0  1  0  0  3  0  0  0  0  0  0
  -22.2300    0.6280    3.6680 C   0  0  0  0  0  2  0  0  0  0  0  0
  -20.8100    0.3110    3.1980 C   0  0  0  0  0  2  0  0  0  0  0  0
  -20.6610    0.3000    1.6740 C   0  0  2  0  0  3  0  0  0  0  0  0
  -20.7000    1.7140    1.0900 C   0  0  0  0  0  1  0  0  0  0  0  0
  -21.7170   -0.6120    1.0410 C   0  0  0  0  0  2  0  0  0  0  0  0
  -23.1440   -0.2590    1.4590 C   0  0  0  0  0  2  0  0  0  0  0  0
  -26.6770   -1.6770    5.5780 C   0  0  0  0  0  1  0  0  0  0  0  0
  -25.5240   -0.8920    4.9450 C   0  0  0  0  0  3  0  0  0  0  0  0
  -25.1780    0.3320    5.8000 C   0  0  0  0  0  1  0  0  0  0  0  0
  -25.3820   -4.6650    4.3030 C   0  0  0  0  0  0  0  0  0  0  0  0
  -26.6250   -4.8020    4.5410 O   0  0  0  0  0  1  0  0  0  0  0  0
  -24.8130   -4.9950    3.2110 O   0  0  0  0  0  0  0  0  0  0  0  0
  1  2  1  0  0  0  0
  2  3  2  0  0  0  0
  3  6  1  0  0  0  0
  4  3  1  0  0  0  0
  5  1  2  0  0  0  0
  5  4  1  0  0  0  0
  6  7  2  0  0  0  0
  6 11  1  0  0  0  0
  7  8  1  0  0  0  0
  8  9  2  0  0  0  0
 10  9  1  0  0  0  0
 11 10  2  0  0  0  0
 12 23  1  0  0  0  0
 12  1  1  0  0  0  0
 13 12  1  0  0  0  0
 14 13  2  0  0  0  0
 15 13  1  1  0  0  0
 15 16  1  0  0  0  0
 17 16  1  0  0  0  0
 18 19  1  6  0  0  0
 18 17  1  0  0  0  0
 20 21  1  0  0  0  0
 20 18  1  0  0  0  0
 21 15  1  0  0  0  0
 23 22  1  0  0  0  0
 23 24  1  0  0  0  0
 25 26  1  0  0  0  0
 25  5  1  0  0  0  0
 27 25  2  0  0  0  0
M  END
>  <minimizedAffinity>
-7.53335238

$$$$
