
 OpenBabel08292220033D

 27 29  0  0  1  0  0  0  0  0999 V2000
  -20.2420   -3.1780    5.9430 C   0  0  0  0  0  0  0  0  0  0  0  0
  -19.9270   -3.4280    7.3170 C   0  0  0  0  0  3  0  0  0  0  0  0
  -20.9210   -4.1060    7.9920 C   0  0  0  0  0  0  0  0  0  0  0  0
  -22.2420   -4.4330    6.9560 S   0  0  0  0  0  0  0  0  0  0  0  0
  -21.4700   -3.7240    5.5940 C   0  0  0  0  0  0  0  0  0  0  0  0
  -20.9600   -4.5040    9.4060 C   0  0  0  0  0  0  0  0  0  0  0  0
  -22.0230   -5.2540    9.9300 C   0  0  0  0  0  3  0  0  0  0  0  0
  -22.0330   -5.6400   11.2740 C   0  0  0  0  0  3  0  0  0  0  0  0
  -20.9780   -5.2840   12.1100 C   0  0  0  0  0  3  0  0  0  0  0  0
  -19.9130   -4.5420   11.6060 C   0  0  0  0  0  3  0  0  0  0  0  0
  -19.9030   -4.1570   10.2620 C   0  0  0  0  0  3  0  0  0  0  0  0
  -19.3860   -2.4890    5.0590 N   0  0  0  0  0  0  0  0  0  0  0  0
  -19.7930   -1.1820    4.7430 C   0  0  0  0  0  0  0  0  0  0  0  0
  -20.4490   -0.4880    5.5310 O   0  0  0  0  0  0  0  0  0  0  0  0
  -19.3390   -0.5880    3.4000 C   0  0  1  0  0  3  0  0  0  0  0  0
  -20.2580   -1.0270    2.2450 C   0  0  0  0  0  2  0  0  0  0  0  0
  -21.5650   -0.2410    2.1290 C   0  0  0  0  0  2  0  0  0  0  0  0
  -21.3670    1.2780    2.1680 C   0  0  2  0  0  3  0  0  0  0  0  0
  -20.7580    1.8040    0.8660 C   0  0  0  0  0  1  0  0  0  0  0  0
  -20.5360    1.6760    3.3910 C   0  0  0  0  0  2  0  0  0  0  0  0
  -19.2010    0.9380    3.4780 C   0  0  0  0  0  2  0  0  0  0  0  0
  -16.9200   -2.7830    5.2350 C   0  0  0  0  0  1  0  0  0  0  0  0
  -18.2010   -3.1680    4.4880 C   0  0  0  0  0  3  0  0  0  0  0  0
  -18.3410   -4.6920    4.4160 C   0  0  0  0  0  1  0  0  0  0  0  0
  -22.0740   -3.7720    4.2240 C   0  0  0  0  0  0  0  0  0  0  0  0
  -21.6240   -4.6510    3.4210 O   0  0  0  0  0  0  0  0  0  0  0  0
  -22.9640   -2.9090    3.9290 O   0  0  0  0  0  1  0  0  0  0  0  0
  1  2  1  0  0  0  0
  2  3  2  0  0  0  0
  3  6  1  0  0  0  0
  4  3  1  0  0  0  0
  5  1  2  0  0  0  0
  5  4  1  0  0  0  0
  6  7  2  0  0  0  0
  6 11  1  0  0  0  0
  7  8  1  0  0  0  0
  8  9  2  0  0  0  0
 10  9  1  0  0  0  0
 11 10  2  0  0  0  0
 12  1  1  0  0  0  0
 13 12  1  0  0  0  0
 13 14  2  0  0  0  0
 15 21  1  0  0  0  0
 15 13  1  1  0  0  0
 16 15  1  0  0  0  0
 17 18  1  0  0  0  0
 17 16  1  0  0  0  0
 18 19  1  6  0  0  0
 18 20  1  0  0  0  0
 20 21  1  0  0  0  0
 23 12  1  0  0  0  0
 23 22  1  0  0  0  0
 24 23  1  0  0  0  0
 25  5  1  0  0  0  0
 26 25  2  0  0  0  0
 27 25  1  0  0  0  0
M  END
>  <minimizedAffinity>
-7.24102783

$$$$
