
 OpenBabel08292220033D

 27 29  0  0  1  0  0  0  0  0999 V2000
  -13.4550   -6.1670   11.6980 C   0  0  0  0  0  0  0  0  0  0  0  0
  -14.7530   -5.9470   12.2590 C   0  0  0  0  0  3  0  0  0  0  0  0
  -15.5120   -7.0960   12.3510 C   0  0  0  0  0  0  0  0  0  0  0  0
  -14.6460   -8.4430   11.7490 S   0  0  0  0  0  0  0  0  0  0  0  0
  -13.2410   -7.5100   11.4180 C   0  0  0  0  0  0  0  0  0  0  0  0
  -16.8900   -7.2480   12.8410 C   0  0  0  0  0  0  0  0  0  0  0  0
  -17.2060   -8.1300   13.8850 C   0  0  0  0  0  3  0  0  0  0  0  0
  -18.5190   -8.2460   14.3500 C   0  0  0  0  0  3  0  0  0  0  0  0
  -19.5320   -7.4790   13.7800 C   0  0  0  0  0  3  0  0  0  0  0  0
  -19.2350   -6.5970   12.7440 C   0  0  0  0  0  3  0  0  0  0  0  0
  -17.9220   -6.4810   12.2790 C   0  0  0  0  0  3  0  0  0  0  0  0
  -12.5090   -5.1410   11.4940 N   0  0  0  0  0  0  0  0  0  0  0  0
  -11.7750   -4.7790   12.6360 C   0  0  0  0  0  0  0  0  0  0  0  0
  -11.5300   -5.5850   13.5430 O   0  0  0  0  0  0  0  0  0  0  0  0
  -11.2090   -3.3520   12.7090 C   0  0  1  0  0  3  0  0  0  0  0  0
  -11.6470   -2.6330   13.9990 C   0  0  0  0  0  2  0  0  0  0  0  0
  -10.8370   -2.9970   15.2440 C   0  0  0  0  0  2  0  0  0  0  0  0
   -9.3220   -2.9290   15.0270 C   0  0  2  0  0  3  0  0  0  0  0  0
   -8.8260   -1.4840   14.9420 C   0  0  0  0  0  1  0  0  0  0  0  0
   -8.9230   -3.7460   13.7940 C   0  0  0  0  0  2  0  0  0  0  0  0
   -9.6850   -3.3430   12.5330 C   0  0  0  0  0  2  0  0  0  0  0  0
  -11.2830   -5.1220    9.3270 C   0  0  0  0  0  1  0  0  0  0  0  0
  -12.3930   -4.4870   10.1700 C   0  0  0  0  0  3  0  0  0  0  0  0
  -13.7070   -4.4520    9.3840 C   0  0  0  0  0  1  0  0  0  0  0  0
  -11.9650   -8.1360   10.9440 C   0  0  0  0  0  0  0  0  0  0  0  0
  -10.9800   -8.1300   11.7500 O   0  0  0  0  0  1  0  0  0  0  0  0
  -11.9270   -8.5940    9.7550 O   0  0  0  0  0  0  0  0  0  0  0  0
  1  2  1  0  0  0  0
  2  3  2  0  0  0  0
  3  6  1  0  0  0  0
  4  3  1  0  0  0  0
  5  1  2  0  0  0  0
  5  4  1  0  0  0  0
  6  7  1  0  0  0  0
  7  8  2  0  0  0  0
  9  8  1  0  0  0  0
 10  9  2  0  0  0  0
 11 10  1  0  0  0  0
 11  6  2  0  0  0  0
 12  1  1  0  0  0  0
 12 13  1  0  0  0  0
 13 14  2  0  0  0  0
 15 13  1  1  0  0  0
 15 16  1  0  0  0  0
 16 17  1  0  0  0  0
 18 19  1  6  0  0  0
 18 17  1  0  0  0  0
 20 18  1  0  0  0  0
 21 15  1  0  0  0  0
 21 20  1  0  0  0  0
 22 23  1  0  0  0  0
 23 12  1  0  0  0  0
 24 23  1  0  0  0  0
 25  5  1  0  0  0  0
 25 26  1  0  0  0  0
 27 25  2  0  0  0  0
M  END
>  <minimizedAffinity>
-7.53568697

$$$$
