
 OpenBabel09122222393D

 25 28  0  0  0  0  0  0  0  0999 V2000
    7.0880    3.8220   11.8550 C   0  0  0  0  0  0  0  0  0  0  0  0
    7.0650    4.7800   12.7560 N   0  0  0  0  0  0  0  0  0  0  0  0
    7.8290    5.7960   12.2380 C   0  0  0  0  0  0  0  0  0  0  0  0
    8.1470    7.0440   12.7980 C   0  0  0  0  0  3  0  0  0  0  0  0
    8.9710    7.9420   12.0900 C   0  0  0  0  0  0  0  0  0  0  0  0
    9.4580    7.5620   10.8300 C   0  0  0  0  0  3  0  0  0  0  0  0
    9.1510    6.3230   10.2510 C   0  0  0  0  0  3  0  0  0  0  0  0
    8.3280    5.4550   10.9810 C   0  0  0  0  0  0  0  0  0  0  0  0
    7.8210    4.1930   10.7440 N   0  0  0  0  0  0  0  0  0  0  0  0
    8.0040    3.3880    9.5410 C   0  0  0  0  0  3  0  0  0  0  0  0
    7.7780    4.1830    8.2440 C   0  0  0  0  0  2  0  0  0  0  0  0
    7.9330    3.2910    7.0130 C   0  0  0  0  0  2  0  0  0  0  0  0
    9.2750    2.5630    7.0090 C   0  0  0  0  0  2  0  0  0  0  0  0
    9.4840    1.7600    8.2900 C   0  0  0  0  0  2  0  0  0  0  0  0
    9.3440    2.6350    9.5340 C   0  0  0  0  0  2  0  0  0  0  0  0
    4.9030    0.6320   12.0130 C   0  0  0  0  0  0  0  0  0  0  0  0
    6.0370    0.3760   12.7580 C   0  0  0  0  0  3  0  0  0  0  0  0
    6.9270    1.4900   12.7840 C   0  0  0  0  0  3  0  0  0  0  0  0
    6.4510    2.5540   12.0470 C   0  0  0  0  0  0  0  0  0  0  0  0
    4.9340    2.2090   11.3430 S   0  0  0  0  0  0  0  0  0  0  0  0
    3.3820   -0.3450   10.2870 C   0  0  0  0  0  1  0  0  0  0  0  0
    3.7330   -0.2720   11.7660 C   0  0  0  0  0  2  0  0  0  0  0  0
    9.3310    9.2920   12.6800 C   0  0  0  0  0  0  0  0  0  0  0  0
    9.0750    9.4790   13.9100 O   0  0  0  0  0  1  0  0  0  0  0  0
    9.8660   10.1400   11.8950 O   0  0  0  0  0  0  0  0  0  0  0  0
  1 19  1  0  0  0  0
  1  2  2  0  0  0  0
  3  2  1  0  0  0  0
  3  4  1  0  0  0  0
  5 23  1  0  0  0  0
  5  4  2  0  0  0  0
  6  5  1  0  0  0  0
  7  6  2  0  0  0  0
  7  8  1  0  0  0  0
  8  3  2  0  0  0  0
  9  8  1  0  0  0  0
  9  1  1  0  0  0  0
 10  9  1  0  0  0  0
 11 10  1  0  0  0  0
 12 11  1  0  0  0  0
 13 12  1  0  0  0  0
 13 14  1  0  0  0  0
 14 15  1  0  0  0  0
 15 10  1  0  0  0  0
 16 17  2  0  0  0  0
 17 18  1  0  0  0  0
 19 18  2  0  0  0  0
 20 16  1  0  0  0  0
 20 19  1  0  0  0  0
 21 22  1  0  0  0  0
 22 16  1  0  0  0  0
 23 24  1  0  0  0  0
 25 23  2  0  0  0  0
M  END
>  <minimizedAffinity>
-6.25979662

$$$$
