
 OpenBabel09122222393D

 25 28  0  0  0  0  0  0  0  0999 V2000
    4.9490   -0.0280   10.7670 C   0  0  0  0  0  0  0  0  0  0  0  0
    5.1570    0.0800    9.4730 N   0  0  0  0  0  0  0  0  0  0  0  0
    4.2150   -0.7210    8.8760 C   0  0  0  0  0  0  0  0  0  0  0  0
    4.0030   -0.9810    7.5130 C   0  0  0  0  0  3  0  0  0  0  0  0
    2.9730   -1.8580    7.1170 C   0  0  0  0  0  0  0  0  0  0  0  0
    2.1770   -2.4550    8.1070 C   0  0  0  0  0  3  0  0  0  0  0  0
    2.3690   -2.2070    9.4730 C   0  0  0  0  0  3  0  0  0  0  0  0
    3.4010   -1.3290    9.8310 C   0  0  0  0  0  0  0  0  0  0  0  0
    3.8750   -0.8530   11.0370 N   0  0  0  0  0  0  0  0  0  0  0  0
    3.3420   -1.1460   12.3640 C   0  0  0  0  0  3  0  0  0  0  0  0
    2.0100   -0.4320   12.6500 C   0  0  0  0  0  2  0  0  0  0  0  0
    1.5150   -0.7280   14.0650 C   0  0  0  0  0  2  0  0  0  0  0  0
    1.4260   -2.2300   14.3280 C   0  0  0  0  0  2  0  0  0  0  0  0
    2.7560   -2.9290   14.0630 C   0  0  0  0  0  2  0  0  0  0  0  0
    3.2650   -2.6550   12.6480 C   0  0  0  0  0  2  0  0  0  0  0  0
    6.8490    2.2340   13.2670 C   0  0  0  0  0  0  0  0  0  0  0  0
    7.3870    0.9680   13.3860 C   0  0  0  0  0  3  0  0  0  0  0  0
    6.7700    0.0350   12.5020 C   0  0  0  0  0  3  0  0  0  0  0  0
    5.7730    0.6150   11.7460 C   0  0  0  0  0  0  0  0  0  0  0  0
    5.5970    2.2760   12.0980 S   0  0  0  0  0  0  0  0  0  0  0  0
    6.4570    4.6900   13.5130 C   0  0  0  0  0  1  0  0  0  0  0  0
    7.2400    3.4800   14.0020 C   0  0  0  0  0  2  0  0  0  0  0  0
    2.7310   -2.1560    5.6500 C   0  0  0  0  0  0  0  0  0  0  0  0
    1.6260   -1.7750    5.1520 O   0  0  0  0  0  1  0  0  0  0  0  0
    3.6570   -2.7660    5.0240 O   0  0  0  0  0  0  0  0  0  0  0  0
  1  9  1  0  0  0  0
  1 19  1  0  0  0  0
  2  1  2  0  0  0  0
  3  2  1  0  0  0  0
  3  8  1  0  0  0  0
  4  3  2  0  0  0  0
  5  4  1  0  0  0  0
  5  6  2  0  0  0  0
  6  7  1  0  0  0  0
  7  8  2  0  0  0  0
  8  9  1  0  0  0  0
  9 10  1  0  0  0  0
 10 15  1  0  0  0  0
 10 11  1  0  0  0  0
 11 12  1  0  0  0  0
 12 13  1  0  0  0  0
 14 13  1  0  0  0  0
 15 14  1  0  0  0  0
 16 17  2  0  0  0  0
 16 22  1  0  0  0  0
 18 17  1  0  0  0  0
 19 20  1  0  0  0  0
 19 18  2  0  0  0  0
 20 16  1  0  0  0  0
 21 22  1  0  0  0  0
 23  5  1  0  0  0  0
 24 23  1  0  0  0  0
 25 23  2  0  0  0  0
M  END
>  <minimizedAffinity>
-6.10630894

$$$$
