
 OpenBabel09122222393D

 25 28  0  0  0  0  0  0  0  0999 V2000
    5.5310   -2.1790    8.9080 C   0  0  0  0  0  0  0  0  0  0  0  0
    5.3660   -2.1460   10.2120 N   0  0  0  0  0  0  0  0  0  0  0  0
    4.0670   -2.5330   10.4320 C   0  0  0  0  0  0  0  0  0  0  0  0
    3.3680   -2.6550   11.6440 C   0  0  0  0  0  3  0  0  0  0  0  0
    2.0180   -3.0590   11.6390 C   0  0  0  0  0  0  0  0  0  0  0  0
    1.4010   -3.3330   10.4090 C   0  0  0  0  0  3  0  0  0  0  0  0
    2.0800   -3.2220    9.1880 C   0  0  0  0  0  3  0  0  0  0  0  0
    3.4210   -2.8190    9.2300 C   0  0  0  0  0  0  0  0  0  0  0  0
    4.3860   -2.6070    8.2660 N   0  0  0  0  0  0  0  0  0  0  0  0
    4.2450   -2.8060    6.8260 C   0  0  0  0  0  3  0  0  0  0  0  0
    4.5000   -4.2590    6.3910 C   0  0  0  0  0  2  0  0  0  0  0  0
    4.3890   -4.4110    4.8750 C   0  0  0  0  0  2  0  0  0  0  0  0
    3.0540   -3.8860    4.3520 C   0  0  0  0  0  2  0  0  0  0  0  0
    2.8150   -2.4380    4.7700 C   0  0  0  0  0  2  0  0  0  0  0  0
    2.9120   -2.2640    6.2850 C   0  0  0  0  0  2  0  0  0  0  0  0
    8.9600   -1.7220    7.1720 C   0  0  0  0  0  0  0  0  0  0  0  0
    8.4080   -0.4640    7.3010 C   0  0  0  0  0  3  0  0  0  0  0  0
    7.1330   -0.4970    7.9400 C   0  0  0  0  0  3  0  0  0  0  0  0
    6.7480   -1.7810    8.2650 C   0  0  0  0  0  0  0  0  0  0  0  0
    7.9270   -2.9300    7.8120 S   0  0  0  0  0  0  0  0  0  0  0  0
   10.2340   -2.1160    5.0580 C   0  0  0  0  0  1  0  0  0  0  0  0
   10.2850   -2.0970    6.5790 C   0  0  0  0  0  2  0  0  0  0  0  0
    1.2440   -3.1920   12.9360 C   0  0  0  0  0  0  0  0  0  0  0  0
    0.7430   -2.1330   13.4280 O   0  0  0  0  0  0  0  0  0  0  0  0
    1.1520   -4.3590   13.4360 O   0  0  0  0  0  1  0  0  0  0  0  0
  1  2  2  0  0  0  0
  2  3  1  0  0  0  0
  3  4  1  0  0  0  0
  5  4  2  0  0  0  0
  5 23  1  0  0  0  0
  6  5  1  0  0  0  0
  7  8  1  0  0  0  0
  7  6  2  0  0  0  0
  8  3  2  0  0  0  0
  9  1  1  0  0  0  0
  9  8  1  0  0  0  0
 10  9  1  0  0  0  0
 11 10  1  0  0  0  0
 12 11  1  0  0  0  0
 13 14  1  0  0  0  0
 13 12  1  0  0  0  0
 14 15  1  0  0  0  0
 15 10  1  0  0  0  0
 16 17  2  0  0  0  0
 16 20  1  0  0  0  0
 17 18  1  0  0  0  0
 18 19  2  0  0  0  0
 19  1  1  0  0  0  0
 20 19  1  0  0  0  0
 21 22  1  0  0  0  0
 22 16  1  0  0  0  0
 23 24  2  0  0  0  0
 23 25  1  0  0  0  0
M  END
>  <minimizedAffinity>
-5.68152523

$$$$
