
 OpenBabel09122222393D

 25 28  0  0  0  0  0  0  0  0999 V2000
    6.7590   -3.2470    5.5940 C   0  0  0  0  0  0  0  0  0  0  0  0
    6.5600   -3.6580    4.3610 N   0  0  0  0  0  0  0  0  0  0  0  0
    7.7060   -3.3420    3.6740 C   0  0  0  0  0  0  0  0  0  0  0  0
    8.0170   -3.5470    2.3200 C   0  0  0  0  0  3  0  0  0  0  0  0
    9.2630   -3.1250    1.8140 C   0  0  0  0  0  0  0  0  0  0  0  0
   10.1710   -2.5060    2.6860 C   0  0  0  0  0  3  0  0  0  0  0  0
    9.8830   -2.2940    4.0410 C   0  0  0  0  0  3  0  0  0  0  0  0
    8.6360   -2.7270    4.5120 C   0  0  0  0  0  0  0  0  0  0  0  0
    8.0170   -2.6960    5.7450 N   0  0  0  0  0  0  0  0  0  0  0  0
    8.5770   -2.1910    6.9940 C   0  0  0  0  0  3  0  0  0  0  0  0
   10.0660   -2.5370    7.1700 C   0  0  0  0  0  2  0  0  0  0  0  0
   10.5980   -2.0310    8.5100 C   0  0  0  0  0  2  0  0  0  0  0  0
   10.3330   -0.5380    8.6950 C   0  0  0  0  0  2  0  0  0  0  0  0
    8.8520   -0.2050    8.5400 C   0  0  0  0  0  2  0  0  0  0  0  0
    8.3010   -0.6930    7.2010 C   0  0  0  0  0  2  0  0  0  0  0  0
    3.8210   -2.9800    8.1000 C   0  0  0  0  0  0  0  0  0  0  0  0
    4.5550   -4.0910    8.4620 C   0  0  0  0  0  3  0  0  0  0  0  0
    5.6810   -4.2950    7.6120 C   0  0  0  0  0  3  0  0  0  0  0  0
    5.7630   -3.3410    6.6180 C   0  0  0  0  0  0  0  0  0  0  0  0
    4.4940   -2.2040    6.7270 S   0  0  0  0  0  0  0  0  0  0  0  0
    1.9790   -1.2980    7.9370 C   0  0  0  0  0  1  0  0  0  0  0  0
    2.5910   -2.4270    8.7550 C   0  0  0  0  0  2  0  0  0  0  0  0
    9.6160   -3.3320    0.3540 C   0  0  0  0  0  0  0  0  0  0  0  0
    9.1120   -4.3420   -0.2310 O   0  0  0  0  0  0  0  0  0  0  0  0
   10.3920   -2.4760   -0.1790 O   0  0  0  0  0  1  0  0  0  0  0  0
  1  9  1  0  0  0  0
  1 19  1  0  0  0  0
  2  1  2  0  0  0  0
  3  2  1  0  0  0  0
  3  8  1  0  0  0  0
  4  3  2  0  0  0  0
  5  4  1  0  0  0  0
  5  6  2  0  0  0  0
  6  7  1  0  0  0  0
  7  8  2  0  0  0  0
  8  9  1  0  0  0  0
  9 10  1  0  0  0  0
 10 11  1  0  0  0  0
 10 15  1  0  0  0  0
 11 12  1  0  0  0  0
 12 13  1  0  0  0  0
 14 13  1  0  0  0  0
 15 14  1  0  0  0  0
 16 17  2  0  0  0  0
 16 22  1  0  0  0  0
 18 17  1  0  0  0  0
 19 20  1  0  0  0  0
 19 18  2  0  0  0  0
 20 16  1  0  0  0  0
 21 22  1  0  0  0  0
 23  5  1  0  0  0  0
 24 23  2  0  0  0  0
 25 23  1  0  0  0  0
M  END
>  <minimizedAffinity>
-5.82954454

$$$$
