
 OpenBabel09122222393D

 25 28  0  0  0  0  0  0  0  0999 V2000
    8.0980    2.0780   10.3890 C   0  0  0  0  0  0  0  0  0  0  0  0
    8.8000    3.1880   10.4390 N   0  0  0  0  0  0  0  0  0  0  0  0
    8.2030    3.9640   11.4010 C   0  0  0  0  0  0  0  0  0  0  0  0
    8.5430    5.2530   11.8420 C   0  0  0  0  0  3  0  0  0  0  0  0
    7.7740    5.8770   12.8460 C   0  0  0  0  0  0  0  0  0  0  0  0
    6.6780    5.1860   13.3850 C   0  0  0  0  0  3  0  0  0  0  0  0
    6.3240    3.8980   12.9620 C   0  0  0  0  0  3  0  0  0  0  0  0
    7.1100    3.3070   11.9640 C   0  0  0  0  0  0  0  0  0  0  0  0
    7.0740    2.0880   11.3160 N   0  0  0  0  0  0  0  0  0  0  0  0
    6.1400    0.9930   11.5610 C   0  0  0  0  0  3  0  0  0  0  0  0
    6.1910    0.4700   13.0070 C   0  0  0  0  0  2  0  0  0  0  0  0
    5.2340   -0.7040   13.2050 C   0  0  0  0  0  2  0  0  0  0  0  0
    3.8120   -0.3520   12.7750 C   0  0  0  0  0  2  0  0  0  0  0  0
    3.7660    0.1460   11.3340 C   0  0  0  0  0  2  0  0  0  0  0  0
    4.7080    1.3290   11.1150 C   0  0  0  0  0  2  0  0  0  0  0  0
    9.2690   -0.9510    8.2850 C   0  0  0  0  0  0  0  0  0  0  0  0
    8.2550   -0.3410    7.5750 C   0  0  0  0  0  3  0  0  0  0  0  0
    7.7400    0.8050    8.2490 C   0  0  0  0  0  3  0  0  0  0  0  0
    8.3670    1.0250    9.4570 C   0  0  0  0  0  0  0  0  0  0  0  0
    9.5770   -0.1400    9.7630 S   0  0  0  0  0  0  0  0  0  0  0  0
   10.7060   -2.0000    6.5290 C   0  0  0  0  0  1  0  0  0  0  0  0
   10.0710   -2.1590    7.9030 C   0  0  0  0  0  2  0  0  0  0  0  0
    8.1210    7.2710   13.3320 C   0  0  0  0  0  0  0  0  0  0  0  0
    9.3530    7.5660   13.4290 O   0  0  0  0  0  0  0  0  0  0  0  0
    7.1480    8.0460   13.6050 O   0  0  0  0  0  1  0  0  0  0  0  0
  1  2  2  0  0  0  0
  1  9  1  0  0  0  0
  2  3  1  0  0  0  0
  3  4  2  0  0  0  0
  3  8  1  0  0  0  0
  4  5  1  0  0  0  0
  5 23  1  0  0  0  0
  5  6  2  0  0  0  0
  7  6  1  0  0  0  0
  8  7  2  0  0  0  0
  9 10  1  0  0  0  0
  9  8  1  0  0  0  0
 10 11  1  0  0  0  0
 11 12  1  0  0  0  0
 13 12  1  0  0  0  0
 14 13  1  0  0  0  0
 15 14  1  0  0  0  0
 15 10  1  0  0  0  0
 16 20  1  0  0  0  0
 17 18  1  0  0  0  0
 17 16  2  0  0  0  0
 18 19  2  0  0  0  0
 19 20  1  0  0  0  0
 19  1  1  0  0  0  0
 21 22  1  0  0  0  0
 22 16  1  0  0  0  0
 23 24  2  0  0  0  0
 23 25  1  0  0  0  0
M  END
>  <minimizedAffinity>
-5.79582024

$$$$
