
 OpenBabel09122222393D

 16 17  0  0  0  0  0  0  0  0999 V2000
    8.8980   -2.7480    1.7170 C   0  0  0  0  0  0  0  0  0  0  0  0
    8.9220   -1.3710    1.8900 O   0  0  0  0  0  0  0  0  0  0  0  0
    9.5250   -0.6040    0.9290 C   0  0  0  0  0  0  0  0  0  0  0  0
    9.5290    0.7770    1.1240 C   0  0  0  0  0  3  0  0  0  0  0  0
   10.1290    1.6130    0.1800 C   0  0  0  0  0  3  0  0  0  0  0  0
   10.7260    1.0700   -0.9590 C   0  0  0  0  0  3  0  0  0  0  0  0
   10.7230   -0.3130   -1.1550 C   0  0  0  0  0  3  0  0  0  0  0  0
   10.1200   -1.1440   -0.2060 C   0  0  0  0  0  0  0  0  0  0  0  0
   10.0970   -2.6020   -0.3860 C   0  0  0  0  0  0  0  0  0  0  0  0
   10.6010   -3.1580   -1.3600 O   0  0  0  0  0  0  0  0  0  0  0  0
    9.4280   -3.4000    0.6720 C   0  0  0  0  0  0  0  0  0  0  0  0
    7.2260   -4.2440    2.4660 O   0  0  0  0  0  0  0  0  0  0  0  0
    8.2020   -3.5280    2.8350 C   0  0  0  0  0  0  0  0  0  0  0  0
    8.7470   -3.4300    3.9750 O   0  0  0  0  0  1  0  0  0  0  0  0
    9.3980   -4.7690    0.5000 O   0  0  0  0  0  0  0  0  0  0  0  0
    9.8700   -4.9240   -0.3410 H   0  0  0  0  0  0  0  0  0  0  0  0
  1  2  1  0  0  0  0
  1 13  1  0  0  0  0
  3  4  1  0  0  0  0
  3  2  1  0  0  0  0
  5  4  2  0  0  0  0
  6  5  1  0  0  0  0
  7  6  2  0  0  0  0
  7  8  1  0  0  0  0
  8  3  2  0  0  0  0
  9  8  1  0  0  0  0
  9 11  1  0  0  0  0
 10  9  2  0  0  0  0
 11  1  2  0  0  0  0
 12 13  2  0  0  0  0
 13 14  1  0  0  0  0
 15 11  1  0  0  0  0
 16 15  1  0  0  0  0
M  END
>  <minimizedAffinity>
-6.0863471

$$$$
