
 OpenBabel09122222393D

 16 17  0  0  0  0  0  0  0  0999 V2000
    9.2380   -2.1510    3.8860 C   0  0  0  0  0  0  0  0  0  0  0  0
   10.0710   -2.0070    2.7840 O   0  0  0  0  0  0  0  0  0  0  0  0
    9.7850   -2.7270    1.6550 C   0  0  0  0  0  0  0  0  0  0  0  0
   10.6330   -2.5600    0.5600 C   0  0  0  0  0  3  0  0  0  0  0  0
   10.3970   -3.2660   -0.6210 C   0  0  0  0  0  3  0  0  0  0  0  0
    9.3120   -4.1410   -0.7080 C   0  0  0  0  0  3  0  0  0  0  0  0
    8.4630   -4.3100    0.3870 C   0  0  0  0  0  3  0  0  0  0  0  0
    8.7050   -3.5990    1.5660 C   0  0  0  0  0  0  0  0  0  0  0  0
    7.8270   -3.7520    2.7340 C   0  0  0  0  0  0  0  0  0  0  0  0
    6.8540   -4.5020    2.7370 O   0  0  0  0  0  0  0  0  0  0  0  0
    8.1630   -2.9510    3.9370 C   0  0  0  0  0  0  0  0  0  0  0  0
    9.6470   -0.0570    4.9090 O   0  0  0  0  0  0  0  0  0  0  0  0
    9.6260   -1.3080    5.1040 C   0  0  0  0  0  0  0  0  0  0  0  0
    9.7900   -1.9620    6.1760 O   0  0  0  0  0  1  0  0  0  0  0  0
    7.3330   -3.0860    5.0320 O   0  0  0  0  0  0  0  0  0  0  0  0
    6.6620   -3.7400    4.7560 H   0  0  0  0  0  0  0  0  0  0  0  0
  1 11  2  0  0  0  0
  1 13  1  0  0  0  0
  2  1  1  0  0  0  0
  3  2  1  0  0  0  0
  4  3  2  0  0  0  0
  5  4  1  0  0  0  0
  6  5  2  0  0  0  0
  6  7  1  0  0  0  0
  7  8  2  0  0  0  0
  8  3  1  0  0  0  0
  8  9  1  0  0  0  0
  9 10  2  0  0  0  0
  9 11  1  0  0  0  0
 11 15  1  0  0  0  0
 12 13  2  0  0  0  0
 13 14  1  0  0  0  0
 16 15  1  0  0  0  0
M  END
>  <minimizedAffinity>
-5.03543663

$$$$
