
 OpenBabel09122222393D

 16 17  0  0  0  0  0  0  0  0999 V2000
    8.5380   -3.1240    3.0940 C   0  0  0  0  0  0  0  0  0  0  0  0
    7.5160   -4.0400    2.8820 O   0  0  0  0  0  0  0  0  0  0  0  0
    7.3890   -4.5970    1.6370 C   0  0  0  0  0  0  0  0  0  0  0  0
    6.3590   -5.5190    1.4530 C   0  0  0  0  0  3  0  0  0  0  0  0
    6.1760   -6.1220    0.2070 C   0  0  0  0  0  3  0  0  0  0  0  0
    7.0230   -5.8030   -0.8560 C   0  0  0  0  0  3  0  0  0  0  0  0
    8.0550   -4.8800   -0.6730 C   0  0  0  0  0  3  0  0  0  0  0  0
    8.2320   -4.2810    0.5780 C   0  0  0  0  0  0  0  0  0  0  0  0
    9.3110   -3.3090    0.8030 C   0  0  0  0  0  0  0  0  0  0  0  0
   10.0970   -2.9750   -0.0810 O   0  0  0  0  0  0  0  0  0  0  0  0
    9.4220   -2.7320    2.1660 C   0  0  0  0  0  0  0  0  0  0  0  0
    8.9930   -1.3490    4.5900 O   0  0  0  0  0  0  0  0  0  0  0  0
    8.6100   -2.5530    4.5130 C   0  0  0  0  0  0  0  0  0  0  0  0
    8.1910   -3.3290    5.4230 O   0  0  0  0  0  1  0  0  0  0  0  0
   10.4410   -1.8260    2.3810 O   0  0  0  0  0  0  0  0  0  0  0  0
   10.8920   -1.7490    1.5180 H   0  0  0  0  0  0  0  0  0  0  0  0
  1 13  1  0  0  0  0
  2  1  1  0  0  0  0
  3  2  1  0  0  0  0
  4  3  1  0  0  0  0
  5  4  2  0  0  0  0
  6  7  2  0  0  0  0
  6  5  1  0  0  0  0
  7  8  1  0  0  0  0
  8  9  1  0  0  0  0
  8  3  2  0  0  0  0
  9 11  1  0  0  0  0
 10  9  2  0  0  0  0
 11 15  1  0  0  0  0
 11  1  2  0  0  0  0
 13 12  2  0  0  0  0
 13 14  1  0  0  0  0
 16 15  1  0  0  0  0
M  END
>  <minimizedAffinity>
-5.42286587

$$$$
