
 OpenBabel09122218113D

 16 17  0  0  0  0  0  0  0  0999 V2000
    8.8980   -2.7480    1.7170 C   0  0  0  0  0  0  0  0  0  0  0  0
    8.9220   -1.3710    1.8900 O   0  0  0  0  0  0  0  0  0  0  0  0
    9.5250   -0.6040    0.9290 C   0  0  0  0  0  0  0  0  0  0  0  0
    9.5290    0.7770    1.1240 C   0  0  0  0  0  3  0  0  0  0  0  0
   10.1290    1.6130    0.1800 C   0  0  0  0  0  3  0  0  0  0  0  0
   10.7260    1.0700   -0.9590 C   0  0  0  0  0  3  0  0  0  0  0  0
   10.7230   -0.3130   -1.1550 C   0  0  0  0  0  3  0  0  0  0  0  0
   10.1200   -1.1440   -0.2060 C   0  0  0  0  0  0  0  0  0  0  0  0
   10.0970   -2.6020   -0.3860 C   0  0  0  0  0  0  0  0  0  0  0  0
   10.6010   -3.1580   -1.3600 O   0  0  0  0  0  0  0  0  0  0  0  0
    9.4280   -3.4000    0.6720 C   0  0  0  0  0  0  0  0  0  0  0  0
    7.2260   -4.2440    2.4660 O   0  0  0  0  0  0  0  0  0  0  0  0
    8.2020   -3.5280    2.8350 C   0  0  0  0  0  0  0  0  0  0  0  0
    8.7470   -3.4300    3.9750 O   0  0  0  0  0  1  0  0  0  0  0  0
    9.3980   -4.7690    0.5000 O   0  0  0  0  0  0  0  0  0  0  0  0
    9.8700   -4.9240   -0.3410 H   0  0  0  0  0  0  0  0  0  0  0  0
  1  2  1  0  0  0  0
  1 13  1  0  0  0  0
  3  4  1  0  0  0  0
  3  2  1  0  0  0  0
  5  4  2  0  0  0  0
  6  5  1  0  0  0  0
  7  6  2  0  0  0  0
  7  8  1  0  0  0  0
  8  3  2  0  0  0  0
  9  8  1  0  0  0  0
  9 11  1  0  0  0  0
 10  9  2  0  0  0  0
 11  1  2  0  0  0  0
 12 13  2  0  0  0  0
 13 14  1  0  0  0  0
 15 11  1  0  0  0  0
 16 15  1  0  0  0  0
M  END
>  <minimizedAffinity>
-6.0863471

$$$$

 OpenBabel09122218113D

 16 17  0  0  0  0  0  0  0  0999 V2000
    8.5930   -3.4760    2.3350 C   0  0  0  0  0  0  0  0  0  0  0  0
    7.4180   -4.1980    2.4990 O   0  0  0  0  0  0  0  0  0  0  0  0
    6.9420   -4.9160    1.4340 C   0  0  0  0  0  0  0  0  0  0  0  0
    5.7650   -5.6390    1.6280 C   0  0  0  0  0  3  0  0  0  0  0  0
    5.2260   -6.3900    0.5810 C   0  0  0  0  0  3  0  0  0  0  0  0
    5.8640   -6.4190   -0.6600 C   0  0  0  0  0  3  0  0  0  0  0  0
    7.0420   -5.6960   -0.8550 C   0  0  0  0  0  3  0  0  0  0  0  0
    7.5760   -4.9470    0.1980 C   0  0  0  0  0  0  0  0  0  0  0  0
    8.8170   -4.1780    0.0250 C   0  0  0  0  0  0  0  0  0  0  0  0
    9.4370   -4.1520   -1.0360 O   0  0  0  0  0  0  0  0  0  0  0  0
    9.3070   -3.4190    1.2020 C   0  0  0  0  0  0  0  0  0  0  0  0
    9.2930   -3.4180    4.5940 O   0  0  0  0  0  1  0  0  0  0  0  0
    9.0560   -2.7060    3.5740 C   0  0  0  0  0  0  0  0  0  0  0  0
    9.2310   -1.4640    3.3980 O   0  0  0  0  0  0  0  0  0  0  0  0
   10.4780   -2.7050    1.0440 O   0  0  0  0  0  0  0  0  0  0  0  0
   10.7390   -2.8590    0.1150 H   0  0  0  0  0  0  0  0  0  0  0  0
  1  2  1  0  0  0  0
  1 13  1  0  0  0  0
  3  4  1  0  0  0  0
  3  2  1  0  0  0  0
  5  4  2  0  0  0  0
  6  5  1  0  0  0  0
  7  6  2  0  0  0  0
  7  8  1  0  0  0  0
  8  3  2  0  0  0  0
  9  8  1  0  0  0  0
  9 11  1  0  0  0  0
 10  9  2  0  0  0  0
 11  1  2  0  0  0  0
 13 12  1  0  0  0  0
 14 13  2  0  0  0  0
 15 11  1  0  0  0  0
 16 15  1  0  0  0  0
M  END
>  <minimizedAffinity>
-6.07409382

$$$$

 OpenBabel09122218113D

 16 17  0  0  0  0  0  0  0  0999 V2000
    8.5930   -2.8560    1.9750 C   0  0  0  0  0  0  0  0  0  0  0  0
    8.7870   -1.4810    1.9950 O   0  0  0  0  0  0  0  0  0  0  0  0
    9.4280   -0.8990    0.9340 C   0  0  0  0  0  0  0  0  0  0  0  0
    9.6030    0.4840    0.9760 C   0  0  0  0  0  3  0  0  0  0  0  0
   10.2500    1.1380   -0.0750 C   0  0  0  0  0  3  0  0  0  0  0  0
   10.7220    0.4090   -1.1680 C   0  0  0  0  0  3  0  0  0  0  0  0
   10.5470   -0.9750   -1.2110 C   0  0  0  0  0  3  0  0  0  0  0  0
    9.8980   -1.6230   -0.1560 C   0  0  0  0  0  0  0  0  0  0  0  0
    9.6950   -3.0780   -0.1730 C   0  0  0  0  0  0  0  0  0  0  0  0
   10.0810   -3.7900   -1.0980 O   0  0  0  0  0  0  0  0  0  0  0  0
    8.9910   -3.6730    0.9890 C   0  0  0  0  0  0  0  0  0  0  0  0
    8.3720   -3.1160    4.3160 O   0  0  0  0  0  1  0  0  0  0  0  0
    7.8670   -3.4240    3.1970 C   0  0  0  0  0  0  0  0  0  0  0  0
    6.7990   -4.0560    2.9390 O   0  0  0  0  0  0  0  0  0  0  0  0
    8.7910   -5.0390    0.9690 O   0  0  0  0  0  0  0  0  0  0  0  0
    9.2000   -5.3370    0.1340 H   0  0  0  0  0  0  0  0  0  0  0  0
  1  2  1  0  0  0  0
  1 13  1  0  0  0  0
  3  4  1  0  0  0  0
  3  2  1  0  0  0  0
  5  4  2  0  0  0  0
  6  5  1  0  0  0  0
  7  6  2  0  0  0  0
  7  8  1  0  0  0  0
  8  3  2  0  0  0  0
  9  8  1  0  0  0  0
  9 11  1  0  0  0  0
 10  9  2  0  0  0  0
 11  1  2  0  0  0  0
 13 12  1  0  0  0  0
 14 13  2  0  0  0  0
 15 11  1  0  0  0  0
 16 15  1  0  0  0  0
M  END
>  <minimizedAffinity>
-6.00282145

$$$$

 OpenBabel09122218113D

 16 17  0  0  0  0  0  0  0  0999 V2000
    6.5370   -5.4220    1.4640 C   0  0  0  0  0  0  0  0  0  0  0  0
    7.1840   -4.5850    2.3620 O   0  0  0  0  0  0  0  0  0  0  0  0
    8.2630   -3.8650    1.9190 C   0  0  0  0  0  0  0  0  0  0  0  0
    8.8910   -3.0270    2.8400 C   0  0  0  0  0  3  0  0  0  0  0  0
    9.9960   -2.2670    2.4510 C   0  0  0  0  0  3  0  0  0  0  0  0
   10.4750   -2.3460    1.1420 C   0  0  0  0  0  3  0  0  0  0  0  0
    9.8470   -3.1860    0.2200 C   0  0  0  0  0  3  0  0  0  0  0  0
    8.7400   -3.9430    0.6160 C   0  0  0  0  0  0  0  0  0  0  0  0
    8.0550   -4.8320   -0.3320 C   0  0  0  0  0  0  0  0  0  0  0  0
    8.4160   -4.9580   -1.5000 O   0  0  0  0  0  0  0  0  0  0  0  0
    6.8870   -5.5900    0.1810 C   0  0  0  0  0  0  0  0  0  0  0  0
    5.3940   -6.4120    3.2840 O   0  0  0  0  0  1  0  0  0  0  0  0
    5.3410   -6.1860    2.0390 C   0  0  0  0  0  0  0  0  0  0  0  0
    4.4070   -6.4160    1.2150 O   0  0  0  0  0  0  0  0  0  0  0  0
    6.2370   -6.4190   -0.7120 O   0  0  0  0  0  0  0  0  0  0  0  0
    6.7360   -6.3250   -1.5460 H   0  0  0  0  0  0  0  0  0  0  0  0
  1 13  1  0  0  0  0
  1  2  1  0  0  0  0
  3  2  1  0  0  0  0
  3  4  1  0  0  0  0
  5  4  2  0  0  0  0
  6  5  1  0  0  0  0
  7  8  1  0  0  0  0
  7  6  2  0  0  0  0
  8  3  2  0  0  0  0
  9 11  1  0  0  0  0
  9  8  1  0  0  0  0
 10  9  2  0  0  0  0
 11  1  2  0  0  0  0
 13 12  1  0  0  0  0
 14 13  2  0  0  0  0
 15 11  1  0  0  0  0
 16 15  1  0  0  0  0
M  END
>  <minimizedAffinity>
-5.89433146

$$$$

 OpenBabel09122218113D

 16 17  0  0  0  0  0  0  0  0999 V2000
    8.5380   -3.1240    3.0940 C   0  0  0  0  0  0  0  0  0  0  0  0
    7.5160   -4.0400    2.8820 O   0  0  0  0  0  0  0  0  0  0  0  0
    7.3890   -4.5970    1.6370 C   0  0  0  0  0  0  0  0  0  0  0  0
    6.3590   -5.5190    1.4530 C   0  0  0  0  0  3  0  0  0  0  0  0
    6.1760   -6.1220    0.2070 C   0  0  0  0  0  3  0  0  0  0  0  0
    7.0230   -5.8030   -0.8560 C   0  0  0  0  0  3  0  0  0  0  0  0
    8.0550   -4.8800   -0.6730 C   0  0  0  0  0  3  0  0  0  0  0  0
    8.2320   -4.2810    0.5780 C   0  0  0  0  0  0  0  0  0  0  0  0
    9.3110   -3.3090    0.8030 C   0  0  0  0  0  0  0  0  0  0  0  0
   10.0970   -2.9750   -0.0810 O   0  0  0  0  0  0  0  0  0  0  0  0
    9.4220   -2.7320    2.1660 C   0  0  0  0  0  0  0  0  0  0  0  0
    8.9930   -1.3490    4.5900 O   0  0  0  0  0  0  0  0  0  0  0  0
    8.6100   -2.5530    4.5130 C   0  0  0  0  0  0  0  0  0  0  0  0
    8.1910   -3.3290    5.4230 O   0  0  0  0  0  1  0  0  0  0  0  0
   10.4410   -1.8260    2.3810 O   0  0  0  0  0  0  0  0  0  0  0  0
   10.8920   -1.7490    1.5180 H   0  0  0  0  0  0  0  0  0  0  0  0
  1 13  1  0  0  0  0
  2  1  1  0  0  0  0
  3  2  1  0  0  0  0
  4  3  1  0  0  0  0
  5  4  2  0  0  0  0
  6  7  2  0  0  0  0
  6  5  1  0  0  0  0
  7  8  1  0  0  0  0
  8  9  1  0  0  0  0
  8  3  2  0  0  0  0
  9 11  1  0  0  0  0
 10  9  2  0  0  0  0
 11 15  1  0  0  0  0
 11  1  2  0  0  0  0
 13 12  2  0  0  0  0
 13 14  1  0  0  0  0
 16 15  1  0  0  0  0
M  END
>  <minimizedAffinity>
-5.42286587

$$$$

 OpenBabel09122218113D

 16 17  0  0  0  0  0  0  0  0999 V2000
    5.7310   -4.6750    3.0310 C   0  0  0  0  0  0  0  0  0  0  0  0
    6.8150   -3.8100    3.1100 O   0  0  0  0  0  0  0  0  0  0  0  0
    7.7470   -3.8420    2.1060 C   0  0  0  0  0  0  0  0  0  0  0  0
    8.8210   -2.9580    2.2060 C   0  0  0  0  0  3  0  0  0  0  0  0
    9.8070   -2.9430    1.2160 C   0  0  0  0  0  3  0  0  0  0  0  0
    9.7180   -3.8110    0.1260 C   0  0  0  0  0  3  0  0  0  0  0  0
    8.6430   -4.6970    0.0260 C   0  0  0  0  0  3  0  0  0  0  0  0
    7.6600   -4.7060    1.0210 C   0  0  0  0  0  0  0  0  0  0  0  0
    6.5150   -5.6230    0.9420 C   0  0  0  0  0  0  0  0  0  0  0  0
    6.3650   -6.4180    0.0160 O   0  0  0  0  0  0  0  0  0  0  0  0
    5.5210   -5.5540    2.0420 C   0  0  0  0  0  0  0  0  0  0  0  0
    3.5710   -4.1960    3.8680 O   0  0  0  0  0  0  0  0  0  0  0  0
    4.7360   -4.5700    4.1900 C   0  0  0  0  0  0  0  0  0  0  0  0
    5.1790   -4.9590    5.3110 O   0  0  0  0  0  1  0  0  0  0  0  0
    4.4400   -6.4090    1.9630 O   0  0  0  0  0  0  0  0  0  0  0  0
    4.5850   -6.9180    1.1430 H   0  0  0  0  0  0  0  0  0  0  0  0
  1  2  1  0  0  0  0
  1 13  1  0  0  0  0
  3  4  1  0  0  0  0
  3  2  1  0  0  0  0
  5  4  2  0  0  0  0
  6  5  1  0  0  0  0
  7  6  2  0  0  0  0
  7  8  1  0  0  0  0
  8  3  2  0  0  0  0
  9  8  1  0  0  0  0
  9 11  1  0  0  0  0
 10  9  2  0  0  0  0
 11  1  2  0  0  0  0
 12 13  2  0  0  0  0
 13 14  1  0  0  0  0
 15 11  1  0  0  0  0
 16 15  1  0  0  0  0
M  END
>  <minimizedAffinity>
-5.35014677

$$$$

 OpenBabel09122218113D

 16 17  0  0  0  0  0  0  0  0999 V2000
    9.4940    0.0970    1.2130 C   0  0  0  0  0  0  0  0  0  0  0  0
    8.9080   -0.9380    1.9300 O   0  0  0  0  0  0  0  0  0  0  0  0
    8.8950   -2.1890    1.3730 C   0  0  0  0  0  0  0  0  0  0  0  0
    8.3070   -3.2120    2.1170 C   0  0  0  0  0  3  0  0  0  0  0  0
    8.2610   -4.5100    1.6040 C   0  0  0  0  0  3  0  0  0  0  0  0
    8.8020   -4.7860    0.3470 C   0  0  0  0  0  3  0  0  0  0  0  0
    9.3900   -3.7630   -0.3990 C   0  0  0  0  0  3  0  0  0  0  0  0
    9.4340   -2.4650    0.1220 C   0  0  0  0  0  0  0  0  0  0  0  0
   10.0490   -1.3680   -0.6370 C   0  0  0  0  0  0  0  0  0  0  0  0
   10.5460   -1.5290   -1.7490 O   0  0  0  0  0  0  0  0  0  0  0  0
   10.0520   -0.0280    0.0010 C   0  0  0  0  0  0  0  0  0  0  0  0
    9.2930    2.4530    1.1450 O   0  0  0  0  0  0  0  0  0  0  0  0
    9.4690    1.4600    1.9100 C   0  0  0  0  0  0  0  0  0  0  0  0
    9.5360    1.4160    3.1740 O   0  0  0  0  0  1  0  0  0  0  0  0
   10.6390    1.0020   -0.7060 O   0  0  0  0  0  0  0  0  0  0  0  0
   10.9360    0.5910   -1.5420 H   0  0  0  0  0  0  0  0  0  0  0  0
  1 13  1  0  0  0  0
  1  2  1  0  0  0  0
  3  2  1  0  0  0  0
  3  4  1  0  0  0  0
  5  4  2  0  0  0  0
  6  5  1  0  0  0  0
  7  8  1  0  0  0  0
  7  6  2  0  0  0  0
  8  3  2  0  0  0  0
  9 11  1  0  0  0  0
  9  8  1  0  0  0  0
 10  9  2  0  0  0  0
 11  1  2  0  0  0  0
 12 13  2  0  0  0  0
 13 14  1  0  0  0  0
 15 11  1  0  0  0  0
 16 15  1  0  0  0  0
M  END
>  <minimizedAffinity>
-5.3487978

$$$$

 OpenBabel09122218113D

 16 17  0  0  0  0  0  0  0  0999 V2000
    9.2380   -2.1510    3.8860 C   0  0  0  0  0  0  0  0  0  0  0  0
   10.0710   -2.0070    2.7840 O   0  0  0  0  0  0  0  0  0  0  0  0
    9.7850   -2.7270    1.6550 C   0  0  0  0  0  0  0  0  0  0  0  0
   10.6330   -2.5600    0.5600 C   0  0  0  0  0  3  0  0  0  0  0  0
   10.3970   -3.2660   -0.6210 C   0  0  0  0  0  3  0  0  0  0  0  0
    9.3120   -4.1410   -0.7080 C   0  0  0  0  0  3  0  0  0  0  0  0
    8.4630   -4.3100    0.3870 C   0  0  0  0  0  3  0  0  0  0  0  0
    8.7050   -3.5990    1.5660 C   0  0  0  0  0  0  0  0  0  0  0  0
    7.8270   -3.7520    2.7340 C   0  0  0  0  0  0  0  0  0  0  0  0
    6.8540   -4.5020    2.7370 O   0  0  0  0  0  0  0  0  0  0  0  0
    8.1630   -2.9510    3.9370 C   0  0  0  0  0  0  0  0  0  0  0  0
    9.6470   -0.0570    4.9090 O   0  0  0  0  0  0  0  0  0  0  0  0
    9.6260   -1.3080    5.1040 C   0  0  0  0  0  0  0  0  0  0  0  0
    9.7900   -1.9620    6.1760 O   0  0  0  0  0  1  0  0  0  0  0  0
    7.3330   -3.0860    5.0320 O   0  0  0  0  0  0  0  0  0  0  0  0
    6.6620   -3.7400    4.7560 H   0  0  0  0  0  0  0  0  0  0  0  0
  1 11  2  0  0  0  0
  1 13  1  0  0  0  0
  2  1  1  0  0  0  0
  3  2  1  0  0  0  0
  4  3  2  0  0  0  0
  5  4  1  0  0  0  0
  6  5  2  0  0  0  0
  6  7  1  0  0  0  0
  7  8  2  0  0  0  0
  8  3  1  0  0  0  0
  8  9  1  0  0  0  0
  9 10  2  0  0  0  0
  9 11  1  0  0  0  0
 11 15  1  0  0  0  0
 12 13  2  0  0  0  0
 13 14  1  0  0  0  0
 16 15  1  0  0  0  0
M  END
>  <minimizedAffinity>
-5.03543663

$$$$

 OpenBabel09122218113D

 16 17  0  0  0  0  0  0  0  0999 V2000
    5.3300   -3.6220    5.1060 C   0  0  0  0  0  0  0  0  0  0  0  0
    4.0100   -3.2530    5.3280 O   0  0  0  0  0  0  0  0  0  0  0  0
    3.7430   -2.3680    6.3380 C   0  0  0  0  0  0  0  0  0  0  0  0
    2.4100   -2.0080    6.5350 C   0  0  0  0  0  3  0  0  0  0  0  0
    2.0710   -1.1100    7.5500 C   0  0  0  0  0  3  0  0  0  0  0  0
    3.0660   -0.5710    8.3690 C   0  0  0  0  0  3  0  0  0  0  0  0
    4.4010   -0.9310    8.1720 C   0  0  0  0  0  3  0  0  0  0  0  0
    4.7320   -1.8300    7.1540 C   0  0  0  0  0  0  0  0  0  0  0  0
    6.1280   -2.2250    6.9200 C   0  0  0  0  0  0  0  0  0  0  0  0
    7.0600   -1.7960    7.5970 O   0  0  0  0  0  0  0  0  0  0  0  0
    6.3800   -3.1800    5.8120 C   0  0  0  0  0  0  0  0  0  0  0  0
    6.2920   -4.2030    3.0240 O   0  0  0  0  0  0  0  0  0  0  0  0
    5.5400   -4.6120    3.9570 C   0  0  0  0  0  0  0  0  0  0  0  0
    5.0070   -5.7490    4.1260 O   0  0  0  0  0  1  0  0  0  0  0  0
    7.6920   -3.5440    5.5850 O   0  0  0  0  0  0  0  0  0  0  0  0
    8.2040   -3.0640    6.2650 H   0  0  0  0  0  0  0  0  0  0  0  0
  1  2  1  0  0  0  0
  1 11  2  0  0  0  0
  2  3  1  0  0  0  0
  3  4  2  0  0  0  0
  3  8  1  0  0  0  0
  4  5  1  0  0  0  0
  5  6  2  0  0  0  0
  7  6  1  0  0  0  0
  8  7  2  0  0  0  0
  9  8  1  0  0  0  0
  9 10  2  0  0  0  0
 11  9  1  0  0  0  0
 12 13  2  0  0  0  0
 13 14  1  0  0  0  0
 13  1  1  0  0  0  0
 15 11  1  0  0  0  0
 15 16  1  0  0  0  0
M  END
>  <minimizedAffinity>
-5.02757263

$$$$

 OpenBabel09122218113D

 16 17  0  0  0  0  0  0  0  0999 V2000
    9.9960    2.4290    0.8730 C   0  0  0  0  0  0  0  0  0  0  0  0
   10.3930    1.8040   -0.3010 O   0  0  0  0  0  0  0  0  0  0  0  0
   10.3280    0.4370   -0.3640 C   0  0  0  0  0  0  0  0  0  0  0  0
   10.7260   -0.1650   -1.5570 C   0  0  0  0  0  3  0  0  0  0  0  0
   10.6850   -1.5560   -1.6850 C   0  0  0  0  0  3  0  0  0  0  0  0
   10.2480   -2.3440   -0.6190 C   0  0  0  0  0  3  0  0  0  0  0  0
    9.8500   -1.7420    0.5760 C   0  0  0  0  0  3  0  0  0  0  0  0
    9.8920   -0.3490    0.6960 C   0  0  0  0  0  0  0  0  0  0  0  0
    9.4770    0.3150    1.9400 C   0  0  0  0  0  0  0  0  0  0  0  0
    9.0800   -0.3080    2.9220 O   0  0  0  0  0  0  0  0  0  0  0  0
    9.5520    1.7960    1.9680 C   0  0  0  0  0  0  0  0  0  0  0  0
    9.4610    4.5290   -0.0770 O   0  0  0  0  0  0  0  0  0  0  0  0
   10.0950    3.9570    0.8570 C   0  0  0  0  0  0  0  0  0  0  0  0
   10.7260    4.4620    1.8330 O   0  0  0  0  0  1  0  0  0  0  0  0
    9.1530    2.4220    3.1330 O   0  0  0  0  0  0  0  0  0  0  0  0
    8.9000    1.6920    3.7320 H   0  0  0  0  0  0  0  0  0  0  0  0
  1 11  2  0  0  0  0
  2  1  1  0  0  0  0
  3  2  1  0  0  0  0
  3  8  1  0  0  0  0
  4  3  2  0  0  0  0
  5  4  1  0  0  0  0
  5  6  2  0  0  0  0
  6  7  1  0  0  0  0
  7  8  2  0  0  0  0
  8  9  1  0  0  0  0
  9 11  1  0  0  0  0
  9 10  2  0  0  0  0
 11 15  1  0  0  0  0
 12 13  2  0  0  0  0
 13  1  1  0  0  0  0
 13 14  1  0  0  0  0
 15 16  1  0  0  0  0
M  END
>  <minimizedAffinity>
-5.02590179

$$$$
