
 OpenBabel09122222393D

 16 17  0  0  0  0  0  0  0  0999 V2000
    6.5370   -5.4220    1.4640 C   0  0  0  0  0  0  0  0  0  0  0  0
    7.1840   -4.5850    2.3620 O   0  0  0  0  0  0  0  0  0  0  0  0
    8.2630   -3.8650    1.9190 C   0  0  0  0  0  0  0  0  0  0  0  0
    8.8910   -3.0270    2.8400 C   0  0  0  0  0  3  0  0  0  0  0  0
    9.9960   -2.2670    2.4510 C   0  0  0  0  0  3  0  0  0  0  0  0
   10.4750   -2.3460    1.1420 C   0  0  0  0  0  3  0  0  0  0  0  0
    9.8470   -3.1860    0.2200 C   0  0  0  0  0  3  0  0  0  0  0  0
    8.7400   -3.9430    0.6160 C   0  0  0  0  0  0  0  0  0  0  0  0
    8.0550   -4.8320   -0.3320 C   0  0  0  0  0  0  0  0  0  0  0  0
    8.4160   -4.9580   -1.5000 O   0  0  0  0  0  0  0  0  0  0  0  0
    6.8870   -5.5900    0.1810 C   0  0  0  0  0  0  0  0  0  0  0  0
    5.3940   -6.4120    3.2840 O   0  0  0  0  0  1  0  0  0  0  0  0
    5.3410   -6.1860    2.0390 C   0  0  0  0  0  0  0  0  0  0  0  0
    4.4070   -6.4160    1.2150 O   0  0  0  0  0  0  0  0  0  0  0  0
    6.2370   -6.4190   -0.7120 O   0  0  0  0  0  0  0  0  0  0  0  0
    6.7360   -6.3250   -1.5460 H   0  0  0  0  0  0  0  0  0  0  0  0
  1 13  1  0  0  0  0
  1  2  1  0  0  0  0
  3  2  1  0  0  0  0
  3  4  1  0  0  0  0
  5  4  2  0  0  0  0
  6  5  1  0  0  0  0
  7  8  1  0  0  0  0
  7  6  2  0  0  0  0
  8  3  2  0  0  0  0
  9 11  1  0  0  0  0
  9  8  1  0  0  0  0
 10  9  2  0  0  0  0
 11  1  2  0  0  0  0
 13 12  1  0  0  0  0
 14 13  2  0  0  0  0
 15 11  1  0  0  0  0
 16 15  1  0  0  0  0
M  END
>  <minimizedAffinity>
-5.89433146

$$$$
