
 OpenBabel09122222393D

 16 17  0  0  0  0  0  0  0  0999 V2000
    5.7310   -4.6750    3.0310 C   0  0  0  0  0  0  0  0  0  0  0  0
    6.8150   -3.8100    3.1100 O   0  0  0  0  0  0  0  0  0  0  0  0
    7.7470   -3.8420    2.1060 C   0  0  0  0  0  0  0  0  0  0  0  0
    8.8210   -2.9580    2.2060 C   0  0  0  0  0  3  0  0  0  0  0  0
    9.8070   -2.9430    1.2160 C   0  0  0  0  0  3  0  0  0  0  0  0
    9.7180   -3.8110    0.1260 C   0  0  0  0  0  3  0  0  0  0  0  0
    8.6430   -4.6970    0.0260 C   0  0  0  0  0  3  0  0  0  0  0  0
    7.6600   -4.7060    1.0210 C   0  0  0  0  0  0  0  0  0  0  0  0
    6.5150   -5.6230    0.9420 C   0  0  0  0  0  0  0  0  0  0  0  0
    6.3650   -6.4180    0.0160 O   0  0  0  0  0  0  0  0  0  0  0  0
    5.5210   -5.5540    2.0420 C   0  0  0  0  0  0  0  0  0  0  0  0
    3.5710   -4.1960    3.8680 O   0  0  0  0  0  0  0  0  0  0  0  0
    4.7360   -4.5700    4.1900 C   0  0  0  0  0  0  0  0  0  0  0  0
    5.1790   -4.9590    5.3110 O   0  0  0  0  0  1  0  0  0  0  0  0
    4.4400   -6.4090    1.9630 O   0  0  0  0  0  0  0  0  0  0  0  0
    4.5850   -6.9180    1.1430 H   0  0  0  0  0  0  0  0  0  0  0  0
  1  2  1  0  0  0  0
  1 13  1  0  0  0  0
  3  4  1  0  0  0  0
  3  2  1  0  0  0  0
  5  4  2  0  0  0  0
  6  5  1  0  0  0  0
  7  6  2  0  0  0  0
  7  8  1  0  0  0  0
  8  3  2  0  0  0  0
  9  8  1  0  0  0  0
  9 11  1  0  0  0  0
 10  9  2  0  0  0  0
 11  1  2  0  0  0  0
 12 13  2  0  0  0  0
 13 14  1  0  0  0  0
 15 11  1  0  0  0  0
 16 15  1  0  0  0  0
M  END
>  <minimizedAffinity>
-5.35014677

$$$$
