
 OpenBabel09132204463D

 18 19  0  0  0  0  0  0  0  0999 V2000
    9.5540   -3.3730    0.2020 C   0  0  0  0  0  0  0  0  0  0  0  0
    9.5250   -2.8770    1.4740 N   0  0  0  0  0  0  0  0  0  0  0  0
    8.6480   -3.4210    2.3450 C   0  0  0  0  0  0  0  0  0  0  0  0
    7.7900   -4.4210    2.0660 N   0  0  0  0  0  0  0  0  0  0  0  0
    7.8530   -4.8740    0.8100 C   0  0  0  0  0  0  0  0  0  0  0  0
    8.7040   -4.4000   -0.1660 C   0  0  0  0  0  0  0  0  0  0  0  0
    8.6160   -2.8850    3.7260 C   0  0  0  0  0  0  0  0  0  0  0  0
    7.8720   -3.3440    4.7260 N   0  0  0  0  0  0  0  0  0  0  0  0
    8.0900   -2.6110    5.8720 C   0  0  0  0  0  3  0  0  0  0  0  0
    9.0000   -1.5870    5.7580 C   0  0  0  0  0  3  0  0  0  0  0  0
    9.6110   -1.5320    4.1630 S   0  0  0  0  0  0  0  0  0  0  0  0
   11.1990   -3.6870   -1.4830 O   0  0  0  0  0  0  0  0  0  0  0  0
   10.5190   -2.8100   -0.8400 C   0  0  0  0  0  0  0  0  0  0  0  0
   10.5900   -1.5540   -1.0040 O   0  0  0  0  0  1  0  0  0  0  0  0
    6.9890   -5.8940    0.4920 O   0  0  0  0  0  0  0  0  0  0  0  0
    7.1970   -6.0670   -0.4460 H   0  0  0  0  0  0  0  0  0  0  0  0
    8.6520   -4.9680   -1.4130 O   0  0  0  0  0  0  0  0  0  0  0  0
    9.3430   -4.4790   -1.9480 H   0  0  0  0  0  0  0  0  0  0  0  0
  1  2  1  0  0  0  0
  2  3  2  0  0  0  0
  3  7  1  0  0  0  0
  4  3  1  0  0  0  0
  5  4  2  0  0  0  0
  6  1  2  0  0  0  0
  6  5  1  0  0  0  0
  7 11  1  0  0  0  0
  7  8  2  0  0  0  0
  8  9  1  0  0  0  0
 10  9  2  0  0  0  0
 11 10  1  0  0  0  0
 12 13  2  0  0  0  0
 13  1  1  0  0  0  0
 14 13  1  0  0  0  0
 15  5  1  0  0  0  0
 16 15  1  0  0  0  0
 17  6  1  0  0  0  0
 18 17  1  0  0  0  0
M  END
>  <minimizedAffinity>
-6.41857004

$$$$
