
 OpenBabel09122222393D

 39 44  0  0  0  0  0  0  0  0999 V2000
    6.1980   -6.5060    0.4640 C   0  0  0  0  0  0  0  0  0  0  0  0
    7.3870   -6.2580    1.1580 C   0  0  0  0  0  3  0  0  0  0  0  0
    8.3650   -5.4260    0.6040 C   0  0  0  0  0  3  0  0  0  0  0  0
    8.1890   -4.8650   -0.6620 C   0  0  0  0  0  0  0  0  0  0  0  0
    6.9910   -5.0790   -1.3410 C   0  0  0  0  0  3  0  0  0  0  0  0
    6.0100   -5.9100   -0.7890 C   0  0  0  0  0  3  0  0  0  0  0  0
    2.2420  -10.7510    1.9430 C   0  0  0  0  0  0  0  0  0  0  0  0
    2.0930   -9.9990    3.1190 C   0  0  0  0  0  3  0  0  0  0  0  0
    2.7950   -8.8070    3.3390 C   0  0  0  0  0  3  0  0  0  0  0  0
    3.6710   -8.3760    2.3340 C   0  0  0  0  0  0  0  0  0  0  0  0
    3.8490   -9.1000    1.1570 C   0  0  0  0  0  0  0  0  0  0  0  0
    3.1330  -10.2890    0.9540 C   0  0  0  0  0  3  0  0  0  0  0  0
    4.7570   -8.4820    0.3370 N   0  0  0  0  0  0  0  0  0  0  0  0
    5.1780   -7.4150    0.9880 C   0  0  0  0  0  0  0  0  0  0  0  0
    4.4940   -7.2760    2.1860 N   0  0  0  0  0  0  0  0  0  0  0  0
    4.5840   -6.1340    3.0920 C   0  0  0  0  0  3  0  0  0  0  0  0
    4.2410   -4.7970    2.4110 C   0  0  0  0  0  2  0  0  0  0  0  0
    4.3930   -3.6250    3.3800 C   0  0  0  0  0  2  0  0  0  0  0  0
    3.5810   -3.8380    4.6540 C   0  0  0  0  0  2  0  0  0  0  0  0
    3.9410   -5.1560    5.3360 C   0  0  0  0  0  2  0  0  0  0  0  0
    3.7860   -6.3440    4.3890 C   0  0  0  0  0  2  0  0  0  0  0  0
    1.3420  -12.4580    0.5490 O   0  0  0  0  0  0  0  0  0  0  0  0
    1.4600  -12.0340    1.7430 C   0  0  0  0  0  0  0  0  0  0  0  0
    0.9810  -12.5930    2.7800 O   0  0  0  0  0  1  0  0  0  0  0  0
    9.2340   -4.1070   -1.1140 O   0  0  0  0  0  0  0  0  0  0  0  0
   10.5330   -4.3760   -0.5730 C   0  0  0  0  0  2  0  0  0  0  0  0
   11.2150   -3.1100   -0.0250 C   0  0  0  0  0  2  0  0  0  0  0  0
   10.3300   -2.2000    0.8070 C   0  0  0  0  0  0  0  0  0  0  0  0
    9.8160   -2.6820    2.0280 C   0  0  0  0  0  3  0  0  0  0  0  0
    8.9540   -1.9090    2.8040 C   0  0  0  0  0  3  0  0  0  0  0  0
    8.6070   -0.6300    2.3900 C   0  0  0  0  0  3  0  0  0  0  0  0
    9.1460   -0.1150    1.2120 C   0  0  0  0  0  3  0  0  0  0  0  0
   10.0200   -0.8770    0.4120 C   0  0  0  0  0  0  0  0  0  0  0  0
   10.5870   -0.2450   -0.7870 C   0  0  0  0  0  0  0  0  0  0  0  0
   11.2270    0.9990   -0.7140 C   0  0  0  0  0  3  0  0  0  0  0  0
   11.7690    1.5920   -1.8570 C   0  0  0  0  0  3  0  0  0  0  0  0
   11.6890    0.9380   -3.0850 C   0  0  0  0  0  3  0  0  0  0  0  0
   11.0680   -0.3050   -3.1730 C   0  0  0  0  0  3  0  0  0  0  0  0
   10.5200   -0.8940   -2.0300 C   0  0  0  0  0  3  0  0  0  0  0  0
  1 14  1  0  0  0  0
  1  2  1  0  0  0  0
  3  2  2  0  0  0  0
  4  3  1  0  0  0  0
  5  6  1  0  0  0  0
  5  4  2  0  0  0  0
  6  1  2  0  0  0  0
  7  8  1  0  0  0  0
  8  9  2  0  0  0  0
 10  9  1  0  0  0  0
 11 10  2  0  0  0  0
 12 11  1  0  0  0  0
 12  7  2  0  0  0  0
 13 14  2  0  0  0  0
 13 11  1  0  0  0  0
 14 15  1  0  0  0  0
 15 10  1  0  0  0  0
 15 16  1  0  0  0  0
 16 21  1  0  0  0  0
 17 16  1  0  0  0  0
 17 18  1  0  0  0  0
 18 19  1  0  0  0  0
 19 20  1  0  0  0  0
 21 20  1  0  0  0  0
 22 23  2  0  0  0  0
 23  7  1  0  0  0  0
 23 24  1  0  0  0  0
 25  4  1  0  0  0  0
 25 26  1  0  0  0  0
 26 27  1  0  0  0  0
 27 28  1  0  0  0  0
 28 29  1  0  0  0  0
 29 30  2  0  0  0  0
 31 30  1  0  0  0  0
 32 31  2  0  0  0  0
 33 28  2  0  0  0  0
 33 32  1  0  0  0  0
 34 35  1  0  0  0  0
 34 33  1  0  0  0  0
 36 35  2  0  0  0  0
 37 36  1  0  0  0  0
 38 37  2  0  0  0  0
 38 39  1  0  0  0  0
 39 34  2  0  0  0  0
M  END
>  <minimizedAffinity>
-10.2564735

$$$$
