
 OpenBabel09122222393D

 39 44  0  0  0  0  0  0  0  0999 V2000
    5.9810   -6.6110    0.6010 C   0  0  0  0  0  0  0  0  0  0  0  0
    7.1880   -6.3790    1.2710 C   0  0  0  0  0  3  0  0  0  0  0  0
    8.1760   -5.5820    0.6850 C   0  0  0  0  0  3  0  0  0  0  0  0
    7.9920   -5.0400   -0.5890 C   0  0  0  0  0  0  0  0  0  0  0  0
    6.7780   -5.2380   -1.2440 C   0  0  0  0  0  3  0  0  0  0  0  0
    5.7870   -6.0350   -0.6590 C   0  0  0  0  0  3  0  0  0  0  0  0
    1.9670  -10.7400    2.2410 C   0  0  0  0  0  0  0  0  0  0  0  0
    1.8280   -9.9410    3.3870 C   0  0  0  0  0  3  0  0  0  0  0  0
    2.5460   -8.7510    3.5600 C   0  0  0  0  0  3  0  0  0  0  0  0
    3.4280   -8.3720    2.5400 C   0  0  0  0  0  0  0  0  0  0  0  0
    3.5970   -9.1430    1.3930 C   0  0  0  0  0  0  0  0  0  0  0  0
    2.8650  -10.3300    1.2360 C   0  0  0  0  0  3  0  0  0  0  0  0
    4.5140   -8.5700    0.5500 N   0  0  0  0  0  0  0  0  0  0  0  0
    4.9490   -7.4850    1.1590 C   0  0  0  0  0  0  0  0  0  0  0  0
    4.2660   -7.2900    2.3500 N   0  0  0  0  0  0  0  0  0  0  0  0
    4.3710   -6.1140    3.2110 C   0  0  0  0  0  3  0  0  0  0  0  0
    4.2170   -4.7900    2.4430 C   0  0  0  0  0  2  0  0  0  0  0  0
    4.3800   -3.5870    3.3710 C   0  0  0  0  0  2  0  0  0  0  0  0
    3.4340   -3.6650    4.5660 C   0  0  0  0  0  2  0  0  0  0  0  0
    3.6070   -4.9710    5.3360 C   0  0  0  0  0  2  0  0  0  0  0  0
    3.4370   -6.1890    4.4300 C   0  0  0  0  0  2  0  0  0  0  0  0
    1.6140  -12.8870    1.2730 O   0  0  0  0  0  0  0  0  0  0  0  0
    1.1680  -12.0190    2.0900 C   0  0  0  0  0  0  0  0  0  0  0  0
    0.1130  -12.1350    2.7900 O   0  0  0  0  0  1  0  0  0  0  0  0
    9.0470   -4.3170   -1.0720 O   0  0  0  0  0  0  0  0  0  0  0  0
   10.0070   -3.8290   -0.1270 C   0  0  0  0  0  2  0  0  0  0  0  0
   10.4600   -2.3920   -0.4380 C   0  0  0  0  0  2  0  0  0  0  0  0
   11.6750   -2.2710   -1.3380 C   0  0  0  0  0  0  0  0  0  0  0  0
   12.2320   -3.4420   -1.8910 C   0  0  0  0  0  3  0  0  0  0  0  0
   13.3810   -3.3950   -2.6790 C   0  0  0  0  0  3  0  0  0  0  0  0
   13.9840   -2.1740   -2.9510 C   0  0  0  0  0  3  0  0  0  0  0  0
   13.4200   -0.9990   -2.4580 C   0  0  0  0  0  3  0  0  0  0  0  0
   12.2580   -1.0220   -1.6610 C   0  0  0  0  0  0  0  0  0  0  0  0
   11.6950    0.2610   -1.2220 C   0  0  0  0  0  0  0  0  0  0  0  0
   10.4790    0.3170   -0.5270 C   0  0  0  0  0  3  0  0  0  0  0  0
    9.9510    1.5410   -0.1080 C   0  0  0  0  0  3  0  0  0  0  0  0
   10.6420    2.7230   -0.3690 C   0  0  0  0  0  3  0  0  0  0  0  0
   11.8570    2.6850   -1.0470 C   0  0  0  0  0  3  0  0  0  0  0  0
   12.3810    1.4610   -1.4720 C   0  0  0  0  0  3  0  0  0  0  0  0
  1 14  1  0  0  0  0
  1  2  1  0  0  0  0
  3  2  2  0  0  0  0
  4  3  1  0  0  0  0
  5  6  1  0  0  0  0
  5  4  2  0  0  0  0
  6  1  2  0  0  0  0
  7  8  1  0  0  0  0
  8  9  2  0  0  0  0
 10  9  1  0  0  0  0
 11 10  2  0  0  0  0
 12 11  1  0  0  0  0
 12  7  2  0  0  0  0
 13 14  2  0  0  0  0
 13 11  1  0  0  0  0
 14 15  1  0  0  0  0
 15 10  1  0  0  0  0
 15 16  1  0  0  0  0
 16 21  1  0  0  0  0
 17 16  1  0  0  0  0
 17 18  1  0  0  0  0
 18 19  1  0  0  0  0
 19 20  1  0  0  0  0
 21 20  1  0  0  0  0
 22 23  2  0  0  0  0
 23  7  1  0  0  0  0
 23 24  1  0  0  0  0
 25  4  1  0  0  0  0
 25 26  1  0  0  0  0
 27 26  1  0  0  0  0
 28 27  1  0  0  0  0
 29 28  2  0  0  0  0
 30 29  1  0  0  0  0
 31 30  2  0  0  0  0
 31 32  1  0  0  0  0
 32 33  2  0  0  0  0
 33 28  1  0  0  0  0
 33 34  1  0  0  0  0
 34 35  1  0  0  0  0
 35 36  2  0  0  0  0
 37 36  1  0  0  0  0
 38 37  2  0  0  0  0
 39 34  2  0  0  0  0
 39 38  1  0  0  0  0
M  END
>  <minimizedAffinity>
-9.8892498

$$$$
