
 OpenBabel09122222393D

 39 44  0  0  0  0  0  0  0  0999 V2000
    9.0540   -2.6580    0.7910 C   0  0  0  0  0  0  0  0  0  0  0  0
    8.5820   -3.0080    2.0600 C   0  0  0  0  0  3  0  0  0  0  0  0
    8.0800   -4.2920    2.2950 C   0  0  0  0  0  3  0  0  0  0  0  0
    8.0050   -5.2280    1.2620 C   0  0  0  0  0  0  0  0  0  0  0  0
    8.5080   -4.8960    0.0050 C   0  0  0  0  0  3  0  0  0  0  0  0
    9.0120   -3.6120   -0.2320 C   0  0  0  0  0  3  0  0  0  0  0  0
   10.4770    3.1300    0.2190 C   0  0  0  0  0  0  0  0  0  0  0  0
   11.4930    2.6490   -0.6220 C   0  0  0  0  0  3  0  0  0  0  0  0
   11.6480    1.2850   -0.9020 C   0  0  0  0  0  3  0  0  0  0  0  0
   10.7450    0.3940   -0.3070 C   0  0  0  0  0  0  0  0  0  0  0  0
    9.7290    0.8360    0.5370 C   0  0  0  0  0  0  0  0  0  0  0  0
    9.5880    2.2070    0.8020 C   0  0  0  0  0  3  0  0  0  0  0  0
    8.9850   -0.2190    0.9990 N   0  0  0  0  0  0  0  0  0  0  0  0
    9.5340   -1.3080    0.4950 C   0  0  0  0  0  0  0  0  0  0  0  0
   10.5740   -0.9750   -0.3600 N   0  0  0  0  0  0  0  0  0  0  0  0
   11.3080   -1.9080   -1.2120 C   0  0  0  0  0  3  0  0  0  0  0  0
   12.0070   -1.2180   -2.3960 C   0  0  0  0  0  2  0  0  0  0  0  0
   12.7230   -2.2320   -3.2860 C   0  0  0  0  0  2  0  0  0  0  0  0
   13.6870   -3.1030   -2.4860 C   0  0  0  0  0  2  0  0  0  0  0  0
   12.9830   -3.8020   -1.3260 C   0  0  0  0  0  2  0  0  0  0  0  0
   12.2690   -2.8050   -0.4150 C   0  0  0  0  0  2  0  0  0  0  0  0
   11.3140    5.1840    1.0840 O   0  0  0  0  0  1  0  0  0  0  0  0
   10.3410    4.6150    0.4930 C   0  0  0  0  0  0  0  0  0  0  0  0
    9.2700    5.1840    0.1120 O   0  0  0  0  0  0  0  0  0  0  0  0
    7.4550   -6.4320    1.6050 O   0  0  0  0  0  0  0  0  0  0  0  0
    6.6650   -7.1070    0.6190 C   0  0  0  0  0  2  0  0  0  0  0  0
    5.1950   -6.6540    0.6320 C   0  0  0  0  0  2  0  0  0  0  0  0
    4.6650   -6.1960    1.9780 C   0  0  0  0  0  0  0  0  0  0  0  0
    4.5340   -4.8140    2.2240 C   0  0  0  0  0  3  0  0  0  0  0  0
    4.1050   -4.3370    3.4610 C   0  0  0  0  0  3  0  0  0  0  0  0
    3.7760   -5.2300    4.4720 C   0  0  0  0  0  3  0  0  0  0  0  0
    3.8480   -6.6020    4.2330 C   0  0  0  0  0  3  0  0  0  0  0  0
    4.2770   -7.1070    2.9890 C   0  0  0  0  0  0  0  0  0  0  0  0
    4.2760   -8.5630    2.7970 C   0  0  0  0  0  0  0  0  0  0  0  0
    5.2840   -9.3650    3.3490 C   0  0  0  0  0  3  0  0  0  0  0  0
    5.2740  -10.7510    3.1670 C   0  0  0  0  0  3  0  0  0  0  0  0
    4.2470  -11.3510    2.4410 C   0  0  0  0  0  3  0  0  0  0  0  0
    3.2310  -10.5700    1.8970 C   0  0  0  0  0  3  0  0  0  0  0  0
    3.2450   -9.1840    2.0730 C   0  0  0  0  0  3  0  0  0  0  0  0
  1  2  1  0  0  0  0
  2  3  2  0  0  0  0
  4 25  1  0  0  0  0
  4  3  1  0  0  0  0
  5  4  2  0  0  0  0
  6  5  1  0  0  0  0
  6  1  2  0  0  0  0
  7 23  1  0  0  0  0
  7 12  1  0  0  0  0
  8  7  2  0  0  0  0
  9  8  1  0  0  0  0
  9 10  2  0  0  0  0
 10 11  1  0  0  0  0
 11 12  2  0  0  0  0
 11 13  1  0  0  0  0
 14  1  1  0  0  0  0
 14 13  2  0  0  0  0
 15 10  1  0  0  0  0
 15 14  1  0  0  0  0
 16 21  1  0  0  0  0
 16 15  1  0  0  0  0
 17 16  1  0  0  0  0
 18 19  1  0  0  0  0
 18 17  1  0  0  0  0
 19 20  1  0  0  0  0
 20 21  1  0  0  0  0
 23 22  1  0  0  0  0
 24 23  2  0  0  0  0
 26 27  1  0  0  0  0
 26 25  1  0  0  0  0
 27 28  1  0  0  0  0
 28 29  2  0  0  0  0
 28 33  1  0  0  0  0
 29 30  1  0  0  0  0
 30 31  2  0  0  0  0
 32 31  1  0  0  0  0
 33 32  2  0  0  0  0
 34 33  1  0  0  0  0
 34 35  1  0  0  0  0
 36 35  2  0  0  0  0
 37 36  1  0  0  0  0
 38 39  1  0  0  0  0
 38 37  2  0  0  0  0
 39 34  2  0  0  0  0
M  END
>  <minimizedAffinity>
-9.30486965

$$$$
