
 OpenBabel09122222393D

 39 44  0  0  0  0  0  0  0  0999 V2000
    9.2610   -1.5460    3.0380 C   0  0  0  0  0  0  0  0  0  0  0  0
    9.7820   -1.7430    4.3210 C   0  0  0  0  0  3  0  0  0  0  0  0
   10.2940   -0.6620    5.0450 C   0  0  0  0  0  3  0  0  0  0  0  0
   10.3310    0.6170    4.4860 C   0  0  0  0  0  0  0  0  0  0  0  0
    9.7800    0.8240    3.2240 C   0  0  0  0  0  3  0  0  0  0  0  0
    9.2650   -0.2560    2.4970 C   0  0  0  0  0  3  0  0  0  0  0  0
    6.5910   -6.1610    0.3110 C   0  0  0  0  0  0  0  0  0  0  0  0
    7.5140   -5.9020   -0.7150 C   0  0  0  0  0  3  0  0  0  0  0  0
    8.4720   -4.8850   -0.6190 C   0  0  0  0  0  3  0  0  0  0  0  0
    8.4840   -4.1140    0.5500 C   0  0  0  0  0  0  0  0  0  0  0  0
    7.5800   -4.3380    1.5850 C   0  0  0  0  0  0  0  0  0  0  0  0
    6.6300   -5.3650    1.4720 C   0  0  0  0  0  3  0  0  0  0  0  0
    7.7860   -3.4550    2.6130 N   0  0  0  0  0  0  0  0  0  0  0  0
    8.7680   -2.6630    2.2300 C   0  0  0  0  0  0  0  0  0  0  0  0
    9.2680   -3.0700    1.0020 N   0  0  0  0  0  0  0  0  0  0  0  0
   10.4530   -2.5280    0.3420 C   0  0  0  0  0  3  0  0  0  0  0  0
   11.5320   -3.5920    0.0740 C   0  0  0  0  0  2  0  0  0  0  0  0
   12.7710   -2.9760   -0.5730 C   0  0  0  0  0  2  0  0  0  0  0  0
   12.4190   -2.1940   -1.8350 C   0  0  0  0  0  2  0  0  0  0  0  0
   11.3640   -1.1260   -1.5590 C   0  0  0  0  0  2  0  0  0  0  0  0
   10.1100   -1.7210   -0.9200 C   0  0  0  0  0  2  0  0  0  0  0  0
    5.4790   -7.8310   -0.9710 O   0  0  0  0  0  0  0  0  0  0  0  0
    5.5720   -7.2750    0.1690 C   0  0  0  0  0  0  0  0  0  0  0  0
    4.8880   -7.5740    1.1980 O   0  0  0  0  0  1  0  0  0  0  0  0
   10.8960    1.5810    5.2740 O   0  0  0  0  0  0  0  0  0  0  0  0
   10.2440    2.8550    5.3360 C   0  0  0  0  0  2  0  0  0  0  0  0
   11.1860    4.0160    4.9710 C   0  0  0  0  0  2  0  0  0  0  0  0
   12.5440    3.6080    4.4290 C   0  0  0  0  0  0  0  0  0  0  0  0
   13.5630    3.2600    5.3390 C   0  0  0  0  0  3  0  0  0  0  0  0
   14.8440    2.9330    4.8990 C   0  0  0  0  0  3  0  0  0  0  0  0
   15.1280    2.9220    3.5400 C   0  0  0  0  0  3  0  0  0  0  0  0
   14.1210    3.2120    2.6210 C   0  0  0  0  0  3  0  0  0  0  0  0
   12.8190    3.5440    3.0430 C   0  0  0  0  0  0  0  0  0  0  0  0
   11.7990    3.7860    2.0130 C   0  0  0  0  0  0  0  0  0  0  0  0
   11.5830    2.8640    0.9800 C   0  0  0  0  0  3  0  0  0  0  0  0
   10.6080    3.0970    0.0060 C   0  0  0  0  0  3  0  0  0  0  0  0
    9.8290    4.2510    0.0640 C   0  0  0  0  0  3  0  0  0  0  0  0
   10.0220    5.1710    1.0910 C   0  0  0  0  0  3  0  0  0  0  0  0
   11.0020    4.9410    2.0600 C   0  0  0  0  0  3  0  0  0  0  0  0
  1  2  1  0  0  0  0
  2  3  2  0  0  0  0
  4  3  1  0  0  0  0
  4 25  1  0  0  0  0
  5  4  2  0  0  0  0
  6  1  2  0  0  0  0
  6  5  1  0  0  0  0
  7 12  1  0  0  0  0
  8  9  1  0  0  0  0
  8  7  2  0  0  0  0
  9 10  2  0  0  0  0
 10 15  1  0  0  0  0
 10 11  1  0  0  0  0
 11 13  1  0  0  0  0
 12 11  2  0  0  0  0
 14 13  2  0  0  0  0
 14  1  1  0  0  0  0
 15 14  1  0  0  0  0
 16 15  1  0  0  0  0
 17 16  1  0  0  0  0
 18 17  1  0  0  0  0
 19 20  1  0  0  0  0
 19 18  1  0  0  0  0
 20 21  1  0  0  0  0
 21 16  1  0  0  0  0
 22 23  2  0  0  0  0
 23  7  1  0  0  0  0
 23 24  1  0  0  0  0
 25 26  1  0  0  0  0
 27 26  1  0  0  0  0
 28 27  1  0  0  0  0
 28 29  1  0  0  0  0
 30 29  2  0  0  0  0
 31 30  1  0  0  0  0
 32 33  1  0  0  0  0
 32 31  2  0  0  0  0
 33 28  2  0  0  0  0
 34 39  1  0  0  0  0
 34 33  1  0  0  0  0
 35 34  2  0  0  0  0
 36 37  2  0  0  0  0
 36 35  1  0  0  0  0
 37 38  1  0  0  0  0
 38 39  2  0  0  0  0
M  END
>  <minimizedAffinity>
-8.9184742

$$$$
