
 OpenBabel09122223053D

 49 54  0  0  1  0  0  0  0  0999 V2000
    6.0410   -2.7550    8.7040 C   0  0  0  0  0  0  0  0  0  0  0  0
    7.1090   -2.5910    9.5870 C   0  0  0  0  0  3  0  0  0  0  0  0
    7.1950   -1.4300   10.3590 C   0  0  0  0  0  3  0  0  0  0  0  0
    6.1910   -0.4520   10.2880 C   0  0  0  0  0  0  0  0  0  0  0  0
    5.1190   -0.6510    9.4150 C   0  0  0  0  0  0  0  0  0  0  0  0
    4.1520    0.2710    9.3020 F   0  0  0  0  0  0  0  0  0  0  0  0
    5.0290   -1.8010    8.6360 C   0  0  0  0  0  3  0  0  0  0  0  0
    6.3390    0.7840   11.0440 C   0  0  0  0  0  0  0  0  0  0  0  0
    6.6290    1.9320   10.4620 N   0  0  0  0  0  0  0  0  0  0  0  0
    6.6560    2.8750   11.4550 C   0  0  0  0  0  0  0  0  0  0  0  0
    6.8880    4.2570   11.3690 C   0  0  0  0  0  3  0  0  0  0  0  0
    6.8670    5.0440   12.5370 C   0  0  0  0  0  0  0  0  0  0  0  0
    6.6070    4.4200   13.7690 C   0  0  0  0  0  3  0  0  0  0  0  0
    6.3770    3.0430   13.8750 C   0  0  0  0  0  3  0  0  0  0  0  0
    6.4130    2.2910   12.6930 C   0  0  0  0  0  0  0  0  0  0  0  0
    6.2610    0.9410   12.4180 N   0  0  0  0  0  0  0  0  0  0  0  0
    6.1230   -0.0800   13.4540 C   0  0  0  0  0  3  0  0  0  0  0  0
    4.6680   -0.4820   13.7280 C   0  0  0  0  0  2  0  0  0  0  0  0
    4.5750   -1.4320   14.9220 C   0  0  0  0  0  2  0  0  0  0  0  0
    5.4800   -2.6520   14.7480 C   0  0  0  0  0  2  0  0  0  0  0  0
    6.9250   -2.2530   14.4640 C   0  0  0  0  0  2  0  0  0  0  0  0
    7.0220   -1.3140   13.2610 C   0  0  0  0  0  2  0  0  0  0  0  0
    7.1210    6.5370   12.4660 C   0  0  0  0  0  0  0  0  0  0  0  0
    7.1830    7.1710   13.5660 O   0  0  0  0  0  1  0  0  0  0  0  0
    7.2510    7.0460   11.3070 O   0  0  0  0  0  0  0  0  0  0  0  0
    5.9170   -3.8610    7.9070 O   0  0  0  0  0  0  0  0  0  0  0  0
    4.5830   -4.4110    7.8850 C   0  0  2  0  0  3  0  0  0  0  0  0
    2.2680   -2.3680    4.8310 C   0  0  0  0  0  0  0  0  0  0  0  0
    2.1900   -1.9410    6.1590 C   0  0  0  0  0  3  0  0  0  0  0  0
    2.9310   -2.5930    7.1480 C   0  0  0  0  0  3  0  0  0  0  0  0
    3.7520   -3.6870    6.8250 C   0  0  0  0  0  0  0  0  0  0  0  0
    3.8530   -4.0770    5.4780 C   0  0  0  0  0  3  0  0  0  0  0  0
    3.1280   -3.4140    4.4850 C   0  0  0  0  0  3  0  0  0  0  0  0
   -0.2700   -0.0430    3.2080 C   0  0  0  0  0  1  0  0  0  0  0  0
    0.6650   -0.5810    4.1830 N   0  0  0  0  0  0  0  0  0  0  0  0
    0.7070    0.0940    5.4720 C   0  0  0  0  0  1  0  0  0  0  0  0
    1.4950   -1.6330    3.7990 C   0  0  0  0  0  0  0  0  0  0  0  0
    1.6270   -1.9920    2.6290 O   0  0  0  0  0  0  0  0  0  0  0  0
    3.9610   -4.3340    9.2840 C   0  0  0  0  0  0  0  0  0  0  0  0
    4.7250   -4.5020   10.4530 C   0  0  0  0  0  3  0  0  0  0  0  0
    4.1340   -4.4030   11.7140 C   0  0  0  0  0  3  0  0  0  0  0  0
    2.7730   -4.1160   11.8210 C   0  0  0  0  0  0  0  0  0  0  0  0
    1.9870   -3.9770   10.6730 C   0  0  0  0  0  3  0  0  0  0  0  0
    2.5810   -4.0790    9.4130 C   0  0  0  0  0  3  0  0  0  0  0  0
    2.1640   -4.0150   13.1650 C   0  0  0  0  0  0  0  0  0  0  0  0
    2.2190   -5.0070   13.8870 O   0  0  0  0  0  0  0  0  0  0  0  0
    1.5630   -2.8150   13.5400 N   0  0  0  0  0  0  0  0  0  0  0  0
    1.6840   -1.5570   12.8150 C   0  0  0  0  0  1  0  0  0  0  0  0
    0.8130   -2.7700   14.7820 C   0  0  0  0  0  1  0  0  0  0  0  0
  1  2  1  0  0  0  0
  2  3  2  0  0  0  0
  4  3  1  0  0  0  0
  4  8  1  0  0  0  0
  5  4  2  0  0  0  0
  6  5  1  0  0  0  0
  7  1  2  0  0  0  0
  7  5  1  0  0  0  0
  8 16  1  0  0  0  0
  9  8  2  0  0  0  0
  9 10  1  0  0  0  0
 10 15  1  0  0  0  0
 11 10  2  0  0  0  0
 11 12  1  0  0  0  0
 12 13  2  0  0  0  0
 13 14  1  0  0  0  0
 15 14  2  0  0  0  0
 16 15  1  0  0  0  0
 16 17  1  0  0  0  0
 17 18  1  0  0  0  0
 18 19  1  0  0  0  0
 20 19  1  0  0  0  0
 21 20  1  0  0  0  0
 22 17  1  0  0  0  0
 22 21  1  0  0  0  0
 23 12  1  0  0  0  0
 23 24  1  0  0  0  0
 25 23  2  0  0  0  0
 26  1  1  0  0  0  0
 27 26  1  1  0  0  0
 27 39  1  0  0  0  0
 28 29  1  0  0  0  0
 29 30  2  0  0  0  0
 31 30  1  0  0  0  0
 31 27  1  0  0  0  0
 32 31  2  0  0  0  0
 33 28  2  0  0  0  0
 33 32  1  0  0  0  0
 34 35  1  0  0  0  0
 35 36  1  0  0  0  0
 37 35  1  0  0  0  0
 37 28  1  0  0  0  0
 38 37  2  0  0  0  0
 39 44  2  0  0  0  0
 39 40  1  0  0  0  0
 40 41  2  0  0  0  0
 41 42  1  0  0  0  0
 42 45  1  0  0  0  0
 43 42  2  0  0  0  0
 44 43  1  0  0  0  0
 45 47  1  0  0  0  0
 45 46  2  0  0  0  0
 47 49  1  0  0  0  0
 48 47  1  0  0  0  0
M  END
>  <minimizedAffinity>
-0.6533705

$$$$
