
 OpenBabel09122222393D

 29 31  0  0  1  0  0  0  0  0999 V2000
    8.6630   -3.6680    0.6460 N   0  0  0  0  0  0  0  0  0  0  0  0
    8.5240   -5.0070    0.2830 C   0  0  0  0  0  0  0  0  0  0  0  0
    9.3750   -5.6810   -0.2920 O   0  0  0  0  0  0  0  0  0  0  0  0
    7.2810   -5.7070    0.6640 C   0  0  0  0  0  0  0  0  0  0  0  0
    7.2980   -6.5940    1.7450 C   0  0  0  0  0  3  0  0  0  0  0  0
    6.1270   -7.2630    2.1060 C   0  0  0  0  0  3  0  0  0  0  0  0
    4.9560   -7.0510    1.3750 C   0  0  0  0  0  0  0  0  0  0  0  0
    3.5130   -7.8760    1.8250 Cl  0  0  0  0  0  0  0  0  0  0  0  0
    4.9450   -6.1860    0.2800 C   0  0  0  0  0  3  0  0  0  0  0  0
    6.1150   -5.5170   -0.0830 C   0  0  0  0  0  3  0  0  0  0  0  0
    9.7480   -2.8600   -0.0030 C   0  0  2  0  0  3  0  0  0  0  0  0
   11.6370   -3.0870    1.4920 O   0  0  0  0  0  1  0  0  0  0  0  0
   11.2200   -3.3190    0.3160 C   0  0  0  0  0  0  0  0  0  0  0  0
   11.8010   -3.9690   -0.6040 O   0  0  0  0  0  0  0  0  0  0  0  0
    9.6240   -1.3420    0.2460 C   0  0  0  0  0  2  0  0  0  0  0  0
   10.3840   -0.4870   -0.7500 C   0  0  0  0  0  0  0  0  0  0  0  0
   10.7320   -1.0000   -2.0060 C   0  0  0  0  0  3  0  0  0  0  0  0
   11.4100   -0.2020   -2.9300 C   0  0  0  0  0  3  0  0  0  0  0  0
   11.7450    1.1120   -2.6060 C   0  0  0  0  0  3  0  0  0  0  0  0
   11.4040    1.6290   -1.3580 C   0  0  0  0  0  3  0  0  0  0  0  0
   10.7260    0.8340   -0.4340 C   0  0  0  0  0  3  0  0  0  0  0  0
    7.9520   -3.0680    1.7770 C   0  0  0  0  0  2  0  0  0  0  0  0
    8.7700   -2.5450    2.9390 C   0  0  0  0  0  0  0  0  0  0  0  0
    9.2940   -3.3580    3.9490 C   0  0  0  0  0  3  0  0  0  0  0  0
   10.0620   -2.8190    4.9860 C   0  0  0  0  0  3  0  0  0  0  0  0
   10.3290   -1.4530    5.0220 C   0  0  0  0  0  3  0  0  0  0  0  0
    9.8250   -0.6330    4.0180 C   0  0  0  0  0  0  0  0  0  0  0  0
   10.1890    1.2230    4.0530 Br  0  0  0  0  0  0  0  0  0  0  0  0
    9.0550   -1.1670    2.9840 C   0  0  0  0  0  3  0  0  0  0  0  0
  1 22  1  0  0  0  0
  2  1  1  0  0  0  0
  2  4  1  0  0  0  0
  3  2  2  0  0  0  0
  4  5  1  0  0  0  0
  5  6  2  0  0  0  0
  7  8  1  0  0  0  0
  7  6  1  0  0  0  0
  9  7  2  0  0  0  0
 10  9  1  0  0  0  0
 10  4  2  0  0  0  0
 11 15  1  1  0  0  0
 11 13  1  0  0  0  0
 11  1  1  0  0  0  0
 13 12  1  0  0  0  0
 14 13  2  0  0  0  0
 16 21  1  0  0  0  0
 16 15  1  0  0  0  0
 17 16  2  0  0  0  0
 18 19  2  0  0  0  0
 18 17  1  0  0  0  0
 19 20  1  0  0  0  0
 20 21  2  0  0  0  0
 22 23  1  0  0  0  0
 23 29  2  0  0  0  0
 23 24  1  0  0  0  0
 24 25  2  0  0  0  0
 25 26  1  0  0  0  0
 27 28  1  0  0  0  0
 27 26  2  0  0  0  0
 29 27  1  0  0  0  0
M  END
>  <minimizedAffinity>
-4.93359613

$$$$
