
 OpenBabel09122222393D

 29 31  0  0  1  0  0  0  0  0999 V2000
    7.9940   -4.5710    0.3670 N   0  0  0  0  0  0  0  0  0  0  0  0
    7.3180   -4.9980   -0.7750 C   0  0  0  0  0  0  0  0  0  0  0  0
    7.6360   -4.7340   -1.9320 O   0  0  0  0  0  0  0  0  0  0  0  0
    6.1530   -5.8890   -0.6030 C   0  0  0  0  0  0  0  0  0  0  0  0
    4.9020   -5.3330   -0.3210 C   0  0  0  0  0  3  0  0  0  0  0  0
    3.7980   -6.1690   -0.1500 C   0  0  0  0  0  3  0  0  0  0  0  0
    3.9570   -7.5540   -0.2480 C   0  0  0  0  0  0  0  0  0  0  0  0
    2.5930   -8.5830   -0.0400 Cl  0  0  0  0  0  0  0  0  0  0  0  0
    5.2120   -8.1110   -0.5020 C   0  0  0  0  0  3  0  0  0  0  0  0
    6.3170   -7.2760   -0.6720 C   0  0  0  0  0  3  0  0  0  0  0  0
    8.9550   -3.4250    0.2420 C   0  0  2  0  0  3  0  0  0  0  0  0
   10.6440   -4.0180   -1.3870 O   0  0  0  0  0  0  0  0  0  0  0  0
   10.4290   -3.8150   -0.1530 C   0  0  0  0  0  0  0  0  0  0  0  0
   11.2740   -3.7820    0.7910 O   0  0  0  0  0  1  0  0  0  0  0  0
    8.9880   -2.5060    1.4820 C   0  0  0  0  0  2  0  0  0  0  0  0
    9.3340   -1.0620    1.1730 C   0  0  0  0  0  0  0  0  0  0  0  0
    9.9080   -0.7170   -0.0570 C   0  0  0  0  0  3  0  0  0  0  0  0
   10.2030    0.6160   -0.3490 C   0  0  0  0  0  3  0  0  0  0  0  0
    9.9260    1.6130    0.5860 C   0  0  0  0  0  3  0  0  0  0  0  0
    9.3560    1.2780    1.8130 C   0  0  0  0  0  3  0  0  0  0  0  0
    9.0610   -0.0530    2.1060 C   0  0  0  0  0  3  0  0  0  0  0  0
    7.9810   -5.3140    1.6290 C   0  0  0  0  0  2  0  0  0  0  0  0
    6.6480   -5.5390    2.3110 C   0  0  0  0  0  0  0  0  0  0  0  0
    6.1210   -6.8030    2.5920 C   0  0  0  0  0  3  0  0  0  0  0  0
    4.8940   -6.9470    3.2460 C   0  0  0  0  0  3  0  0  0  0  0  0
    4.1750   -5.8220    3.6420 C   0  0  0  0  0  3  0  0  0  0  0  0
    4.6910   -4.5570    3.3810 C   0  0  0  0  0  0  0  0  0  0  0  0
    3.7280   -3.0220    3.9210 Br  0  0  0  0  0  0  0  0  0  0  0  0
    5.9140   -4.4100    2.7250 C   0  0  0  0  0  3  0  0  0  0  0  0
  1 22  1  0  0  0  0
  2  4  1  0  0  0  0
  2  1  1  0  0  0  0
  3  2  2  0  0  0  0
  4  5  1  0  0  0  0
  5  6  2  0  0  0  0
  7  6  1  0  0  0  0
  7  8  1  0  0  0  0
  9  7  2  0  0  0  0
 10  4  2  0  0  0  0
 10  9  1  0  0  0  0
 11  1  1  0  0  0  0
 11 15  1  1  0  0  0
 12 13  2  0  0  0  0
 13 11  1  0  0  0  0
 13 14  1  0  0  0  0
 16 15  1  0  0  0  0
 16 21  1  0  0  0  0
 17 16  2  0  0  0  0
 18 17  1  0  0  0  0
 18 19  2  0  0  0  0
 19 20  1  0  0  0  0
 20 21  2  0  0  0  0
 22 23  1  0  0  0  0
 23 24  2  0  0  0  0
 23 29  1  0  0  0  0
 24 25  1  0  0  0  0
 25 26  2  0  0  0  0
 27 26  1  0  0  0  0
 27 28  1  0  0  0  0
 29 27  2  0  0  0  0
M  END
>  <minimizedAffinity>
-4.56805515

$$$$
