
 OpenBabel09122222393D

 29 31  0  0  1  0  0  0  0  0999 V2000
    8.5010   -4.2430    0.5600 N   0  0  0  0  0  0  0  0  0  0  0  0
    7.7980   -4.8850   -0.4590 C   0  0  0  0  0  0  0  0  0  0  0  0
    8.0290   -4.7810   -1.6610 O   0  0  0  0  0  0  0  0  0  0  0  0
    6.7170   -5.8170   -0.0780 C   0  0  0  0  0  0  0  0  0  0  0  0
    7.0320   -6.9740    0.6410 C   0  0  0  0  0  3  0  0  0  0  0  0
    6.0160   -7.8620    0.9990 C   0  0  0  0  0  3  0  0  0  0  0  0
    4.6980   -7.5930    0.6230 C   0  0  0  0  0  0  0  0  0  0  0  0
    3.4470   -8.6890    1.0680 Cl  0  0  0  0  0  0  0  0  0  0  0  0
    4.3870   -6.4520   -0.1180 C   0  0  0  0  0  3  0  0  0  0  0  0
    5.4010   -5.5630   -0.4780 C   0  0  0  0  0  3  0  0  0  0  0  0
    9.3610   -3.0660    0.2020 C   0  0  2  0  0  3  0  0  0  0  0  0
   11.6190   -3.1970    1.0610 O   0  0  0  0  0  1  0  0  0  0  0  0
   10.8960   -3.3740    0.0340 C   0  0  0  0  0  0  0  0  0  0  0  0
   11.2360   -3.8680   -1.0840 O   0  0  0  0  0  0  0  0  0  0  0  0
    9.1850   -1.8590    1.1470 C   0  0  0  0  0  2  0  0  0  0  0  0
    9.6620   -0.5420    0.5650 C   0  0  0  0  0  0  0  0  0  0  0  0
    9.5640    0.6400    1.3100 C   0  0  0  0  0  3  0  0  0  0  0  0
   10.0260    1.8470    0.7820 C   0  0  0  0  0  3  0  0  0  0  0  0
   10.5900    1.8810   -0.4930 C   0  0  0  0  0  3  0  0  0  0  0  0
   10.6910    0.7090   -1.2410 C   0  0  0  0  0  3  0  0  0  0  0  0
   10.2290   -0.4970   -0.7150 C   0  0  0  0  0  3  0  0  0  0  0  0
    8.6160   -4.7820    1.9160 C   0  0  0  0  0  2  0  0  0  0  0  0
    7.7240   -4.2020    2.9930 C   0  0  0  0  0  0  0  0  0  0  0  0
    8.1910   -3.4100    4.0470 C   0  0  0  0  0  3  0  0  0  0  0  0
    7.3140   -2.8830    5.0000 C   0  0  0  0  0  3  0  0  0  0  0  0
    5.9470   -3.1300    4.9070 C   0  0  0  0  0  3  0  0  0  0  0  0
    5.4650   -3.9060    3.8570 C   0  0  0  0  0  0  0  0  0  0  0  0
    3.6090   -4.2420    3.7160 Br  0  0  0  0  0  0  0  0  0  0  0  0
    6.3380   -4.4370    2.9070 C   0  0  0  0  0  3  0  0  0  0  0  0
  1 22  1  0  0  0  0
  2  4  1  0  0  0  0
  2  1  1  0  0  0  0
  3  2  2  0  0  0  0
  4  5  1  0  0  0  0
  5  6  2  0  0  0  0
  7  6  1  0  0  0  0
  7  8  1  0  0  0  0
  9  7  2  0  0  0  0
 10  9  1  0  0  0  0
 10  4  2  0  0  0  0
 11  1  1  0  0  0  0
 11 15  1  1  0  0  0
 13 11  1  0  0  0  0
 13 12  1  0  0  0  0
 14 13  2  0  0  0  0
 16 15  1  0  0  0  0
 16 17  1  0  0  0  0
 18 17  2  0  0  0  0
 19 18  1  0  0  0  0
 20 21  1  0  0  0  0
 20 19  2  0  0  0  0
 21 16  2  0  0  0  0
 22 23  1  0  0  0  0
 23 24  1  0  0  0  0
 24 25  2  0  0  0  0
 26 25  1  0  0  0  0
 27 26  2  0  0  0  0
 28 27  1  0  0  0  0
 29 23  2  0  0  0  0
 29 27  1  0  0  0  0
M  END
>  <minimizedAffinity>
-5.14913225

$$$$
