
 OpenBabel09122222393D

 29 31  0  0  1  0  0  0  0  0999 V2000
    8.2450   -3.3120    2.2230 N   0  0  0  0  0  0  0  0  0  0  0  0
    8.9950   -3.0170    3.3600 C   0  0  0  0  0  0  0  0  0  0  0  0
    9.3870   -3.8360    4.1880 O   0  0  0  0  0  0  0  0  0  0  0  0
    9.4130   -1.6170    3.5750 C   0  0  0  0  0  0  0  0  0  0  0  0
    9.9570   -1.2460    4.8090 C   0  0  0  0  0  3  0  0  0  0  0  0
   10.3490    0.0770    5.0200 C   0  0  0  0  0  3  0  0  0  0  0  0
   10.1790    1.0200    4.0040 C   0  0  0  0  0  0  0  0  0  0  0  0
   10.6650    2.6500    4.2670 Cl  0  0  0  0  0  0  0  0  0  0  0  0
    9.6110    0.6560    2.7810 C   0  0  0  0  0  3  0  0  0  0  0  0
    9.2180   -0.6670    2.5680 C   0  0  0  0  0  3  0  0  0  0  0  0
    7.5400   -4.6350    2.1550 C   0  0  2  0  0  3  0  0  0  0  0  0
    8.3860   -6.7220    1.2660 O   0  0  0  0  0  1  0  0  0  0  0  0
    7.9610   -5.5670    0.9570 C   0  0  0  0  0  0  0  0  0  0  0  0
    7.7320   -5.1040   -0.2010 O   0  0  0  0  0  0  0  0  0  0  0  0
    6.0020   -4.5210    2.1940 C   0  0  0  0  0  2  0  0  0  0  0  0
    5.2770   -5.8080    1.8470 C   0  0  0  0  0  0  0  0  0  0  0  0
    4.6870   -5.9750    0.5870 C   0  0  0  0  0  3  0  0  0  0  0  0
    4.0420   -7.1690    0.2630 C   0  0  0  0  0  3  0  0  0  0  0  0
    3.9820   -8.2050    1.1940 C   0  0  0  0  0  3  0  0  0  0  0  0
    4.5650   -8.0480    2.4500 C   0  0  0  0  0  3  0  0  0  0  0  0
    5.2090   -6.8550    2.7760 C   0  0  0  0  0  3  0  0  0  0  0  0
    8.2810   -2.4970    1.0070 C   0  0  0  0  0  2  0  0  0  0  0  0
    9.5330   -2.5380    0.1560 C   0  0  0  0  0  0  0  0  0  0  0  0
   10.4660   -3.5790    0.1960 C   0  0  0  0  0  3  0  0  0  0  0  0
   11.5930   -3.5720   -0.6320 C   0  0  0  0  0  3  0  0  0  0  0  0
   11.7990   -2.5240   -1.5260 C   0  0  0  0  0  3  0  0  0  0  0  0
   10.8740   -1.4880   -1.5860 C   0  0  0  0  0  0  0  0  0  0  0  0
   11.1400   -0.0630   -2.8010 Br  0  0  0  0  0  0  0  0  0  0  0  0
    9.7500   -1.4900   -0.7580 C   0  0  0  0  0  3  0  0  0  0  0  0
  1  2  1  0  0  0  0
  2  4  1  0  0  0  0
  2  3  2  0  0  0  0
  4  5  1  0  0  0  0
  5  6  2  0  0  0  0
  7  8  1  0  0  0  0
  7  6  1  0  0  0  0
  9  7  2  0  0  0  0
 10  9  1  0  0  0  0
 10  4  2  0  0  0  0
 11 15  1  6  0  0  0
 11  1  1  0  0  0  0
 13 12  1  0  0  0  0
 13 11  1  0  0  0  0
 14 13  2  0  0  0  0
 16 15  1  0  0  0  0
 16 21  1  0  0  0  0
 17 16  2  0  0  0  0
 18 17  1  0  0  0  0
 18 19  2  0  0  0  0
 19 20  1  0  0  0  0
 20 21  2  0  0  0  0
 22  1  1  0  0  0  0
 23 24  1  0  0  0  0
 23 22  1  0  0  0  0
 25 24  2  0  0  0  0
 26 25  1  0  0  0  0
 27 26  2  0  0  0  0
 27 29  1  0  0  0  0
 28 27  1  0  0  0  0
 29 23  2  0  0  0  0
M  END
>  <minimizedAffinity>
-3.70513964

$$$$
