
 OpenBabel09122222393D

 29 31  0  0  1  0  0  0  0  0999 V2000
    9.6190   -1.6930    0.4030 N   0  0  0  0  0  0  0  0  0  0  0  0
   10.2530   -0.9460   -0.5890 C   0  0  0  0  0  0  0  0  0  0  0  0
   10.6450   -1.3820   -1.6690 O   0  0  0  0  0  0  0  0  0  0  0  0
   10.4270    0.5040   -0.3660 C   0  0  0  0  0  0  0  0  0  0  0  0
   11.1640    1.2550   -1.2860 C   0  0  0  0  0  3  0  0  0  0  0  0
   11.3370    2.6240   -1.0770 C   0  0  0  0  0  3  0  0  0  0  0  0
   10.7850    3.2270    0.0560 C   0  0  0  0  0  0  0  0  0  0  0  0
   10.9980    4.9160    0.3090 Cl  0  0  0  0  0  0  0  0  0  0  0  0
   10.0720    2.4720    0.9890 C   0  0  0  0  0  3  0  0  0  0  0  0
    9.8980    1.1030    0.7820 C   0  0  0  0  0  3  0  0  0  0  0  0
    9.7260   -3.1890    0.3490 C   0  0  2  0  0  3  0  0  0  0  0  0
   11.8050   -3.6880    1.4830 O   0  0  0  0  0  1  0  0  0  0  0  0
   11.1910   -3.7660    0.3750 C   0  0  0  0  0  0  0  0  0  0  0  0
   11.5690   -4.3460   -0.6870 O   0  0  0  0  0  0  0  0  0  0  0  0
    8.9510   -3.8230   -0.8260 C   0  0  0  0  0  2  0  0  0  0  0  0
    7.9180   -4.8510   -0.4030 C   0  0  0  0  0  0  0  0  0  0  0  0
    6.9130   -5.2540   -1.2910 C   0  0  0  0  0  3  0  0  0  0  0  0
    5.9790   -6.2180   -0.9070 C   0  0  0  0  0  3  0  0  0  0  0  0
    6.0430   -6.7850    0.3650 C   0  0  0  0  0  3  0  0  0  0  0  0
    7.0390   -6.3890    1.2550 C   0  0  0  0  0  3  0  0  0  0  0  0
    7.9730   -5.4260    0.8740 C   0  0  0  0  0  3  0  0  0  0  0  0
    8.6820   -1.1110    1.3650 C   0  0  0  0  0  2  0  0  0  0  0  0
    8.4240   -1.8630    2.6540 C   0  0  0  0  0  0  0  0  0  0  0  0
    9.2660   -1.8080    3.7690 C   0  0  0  0  0  3  0  0  0  0  0  0
    8.9620   -2.5080    4.9410 C   0  0  0  0  0  3  0  0  0  0  0  0
    7.7980   -3.2680    5.0210 C   0  0  0  0  0  3  0  0  0  0  0  0
    6.9440   -3.3230    3.9250 C   0  0  0  0  0  0  0  0  0  0  0  0
    5.3570   -4.3460    4.0250 Br  0  0  0  0  0  0  0  0  0  0  0  0
    7.2470   -2.6290    2.7530 C   0  0  0  0  0  3  0  0  0  0  0  0
  1 22  1  0  0  0  0
  2  4  1  0  0  0  0
  2  1  1  0  0  0  0
  3  2  2  0  0  0  0
  4 10  1  0  0  0  0
  5  6  1  0  0  0  0
  5  4  2  0  0  0  0
  6  7  2  0  0  0  0
  7  8  1  0  0  0  0
  7  9  1  0  0  0  0
 10  9  2  0  0  0  0
 11 15  1  6  0  0  0
 11 13  1  0  0  0  0
 11  1  1  0  0  0  0
 13 12  1  0  0  0  0
 14 13  2  0  0  0  0
 15 16  1  0  0  0  0
 16 21  1  0  0  0  0
 17 18  1  0  0  0  0
 17 16  2  0  0  0  0
 18 19  2  0  0  0  0
 19 20  1  0  0  0  0
 21 20  2  0  0  0  0
 22 23  1  0  0  0  0
 23 29  2  0  0  0  0
 23 24  1  0  0  0  0
 24 25  2  0  0  0  0
 25 26  1  0  0  0  0
 27 28  1  0  0  0  0
 27 26  2  0  0  0  0
 29 27  1  0  0  0  0
M  END
>  <minimizedAffinity>
-4.78670263

$$$$
