
 OpenBabel09122222393D

 29 31  0  0  1  0  0  0  0  0999 V2000
    8.0360   -4.0200    2.2520 N   0  0  0  0  0  0  0  0  0  0  0  0
    7.9270   -4.8750    1.1560 C   0  0  0  0  0  0  0  0  0  0  0  0
    8.7610   -4.9990    0.2630 O   0  0  0  0  0  0  0  0  0  0  0  0
    6.7430   -5.7540    1.0740 C   0  0  0  0  0  0  0  0  0  0  0  0
    6.8150   -7.0500    1.5950 C   0  0  0  0  0  3  0  0  0  0  0  0
    5.7020   -7.8880    1.5160 C   0  0  0  0  0  3  0  0  0  0  0  0
    4.5330   -7.4290    0.9040 C   0  0  0  0  0  0  0  0  0  0  0  0
    3.1600   -8.4650    0.8100 Cl  0  0  0  0  0  0  0  0  0  0  0  0
    4.4690   -6.1450    0.3600 C   0  0  0  0  0  3  0  0  0  0  0  0
    5.5820   -5.3060    0.4380 C   0  0  0  0  0  3  0  0  0  0  0  0
    9.0380   -2.9040    2.1900 C   0  0  2  0  0  3  0  0  0  0  0  0
   10.3640   -3.1040    4.2050 O   0  0  0  0  0  1  0  0  0  0  0  0
    9.5410   -2.3660    3.5820 C   0  0  0  0  0  0  0  0  0  0  0  0
    9.1520   -1.1990    3.8900 O   0  0  0  0  0  0  0  0  0  0  0  0
    8.5880   -1.7130    1.3180 C   0  0  0  0  0  2  0  0  0  0  0  0
    9.5960   -1.3030    0.2620 C   0  0  0  0  0  0  0  0  0  0  0  0
   10.3330   -2.2730   -0.4310 C   0  0  0  0  0  3  0  0  0  0  0  0
   11.2420   -1.8940   -1.4200 C   0  0  0  0  0  3  0  0  0  0  0  0
   11.4210   -0.5450   -1.7240 C   0  0  0  0  0  3  0  0  0  0  0  0
   10.6930    0.4260   -1.0390 C   0  0  0  0  0  3  0  0  0  0  0  0
    9.7840    0.0490   -0.0510 C   0  0  0  0  0  3  0  0  0  0  0  0
    7.3840   -4.2790    3.5370 C   0  0  0  0  0  2  0  0  0  0  0  0
    5.8820   -4.1090    3.6220 C   0  0  0  0  0  0  0  0  0  0  0  0
    5.1980   -2.9880    3.1410 C   0  0  0  0  0  3  0  0  0  0  0  0
    3.8050   -2.8980    3.2290 C   0  0  0  0  0  3  0  0  0  0  0  0
    3.0700   -3.9390    3.7910 C   0  0  0  0  0  3  0  0  0  0  0  0
    3.7350   -5.0660    4.2630 C   0  0  0  0  0  0  0  0  0  0  0  0
    2.7460   -6.4880    5.0210 Br  0  0  0  0  0  0  0  0  0  0  0  0
    5.1250   -5.1560    4.1810 C   0  0  0  0  0  3  0  0  0  0  0  0
  1 22  1  0  0  0  0
  2  1  1  0  0  0  0
  3  2  2  0  0  0  0
  4  2  1  0  0  0  0
  4  5  1  0  0  0  0
  6  5  2  0  0  0  0
  7  6  1  0  0  0  0
  8  7  1  0  0  0  0
  9 10  1  0  0  0  0
  9  7  2  0  0  0  0
 10  4  2  0  0  0  0
 11 15  1  1  0  0  0
 11  1  1  0  0  0  0
 11 13  1  0  0  0  0
 13 14  2  0  0  0  0
 13 12  1  0  0  0  0
 16 15  1  0  0  0  0
 17 16  2  0  0  0  0
 18 17  1  0  0  0  0
 19 18  2  0  0  0  0
 19 20  1  0  0  0  0
 20 21  2  0  0  0  0
 21 16  1  0  0  0  0
 22 23  1  0  0  0  0
 23 29  1  0  0  0  0
 24 25  1  0  0  0  0
 24 23  2  0  0  0  0
 25 26  2  0  0  0  0
 26 27  1  0  0  0  0
 27 28  1  0  0  0  0
 29 27  2  0  0  0  0
M  END
>  <minimizedAffinity>
-5.19915676

$$$$
