
 OpenBabel09122222393D

 29 31  0  0  1  0  0  0  0  0999 V2000
    8.2060   -3.9900    1.5750 N   0  0  0  0  0  0  0  0  0  0  0  0
    8.0410   -4.9290    0.5580 C   0  0  0  0  0  0  0  0  0  0  0  0
    8.7870   -5.0730   -0.4080 O   0  0  0  0  0  0  0  0  0  0  0  0
    6.9130   -5.8780    0.6620 C   0  0  0  0  0  0  0  0  0  0  0  0
    7.1050   -7.1010    1.3120 C   0  0  0  0  0  3  0  0  0  0  0  0
    6.0450   -8.0040    1.4080 C   0  0  0  0  0  3  0  0  0  0  0  0
    4.8090   -7.6830    0.8420 C   0  0  0  0  0  0  0  0  0  0  0  0
    3.5030   -8.7980    0.9650 Cl  0  0  0  0  0  0  0  0  0  0  0  0
    4.6250   -6.4730    0.1700 C   0  0  0  0  0  3  0  0  0  0  0  0
    5.6840   -5.5690    0.0720 C   0  0  0  0  0  3  0  0  0  0  0  0
    9.1240   -2.8280    1.3320 C   0  0  2  0  0  3  0  0  0  0  0  0
   11.4630   -3.2790    0.9080 O   0  0  0  0  0  0  0  0  0  0  0  0
   10.6100   -3.0250    1.8120 C   0  0  0  0  0  0  0  0  0  0  0  0
   10.8210   -2.8060    3.0430 O   0  0  0  0  0  1  0  0  0  0  0  0
    8.5870   -1.4890    1.8810 C   0  0  0  0  0  2  0  0  0  0  0  0
    9.2220   -0.2630    1.2520 C   0  0  0  0  0  0  0  0  0  0  0  0
    9.2460    0.9570    1.9400 C   0  0  0  0  0  3  0  0  0  0  0  0
    9.8520    2.0770    1.3690 C   0  0  0  0  0  3  0  0  0  0  0  0
   10.4390    1.9860    0.1080 C   0  0  0  0  0  3  0  0  0  0  0  0
   10.4190    0.7770   -0.5850 C   0  0  0  0  0  3  0  0  0  0  0  0
    9.8130   -0.3430   -0.0160 C   0  0  0  0  0  3  0  0  0  0  0  0
    7.7050   -4.1890    2.9360 C   0  0  0  0  0  2  0  0  0  0  0  0
    6.2080   -4.1340    3.1610 C   0  0  0  0  0  0  0  0  0  0  0  0
    5.4180   -3.0200    2.8670 C   0  0  0  0  0  3  0  0  0  0  0  0
    4.0350   -3.0380    3.0760 C   0  0  0  0  0  3  0  0  0  0  0  0
    3.4170   -4.1820    3.5740 C   0  0  0  0  0  3  0  0  0  0  0  0
    4.1880   -5.3030    3.8600 C   0  0  0  0  0  0  0  0  0  0  0  0
    3.3580   -6.8650    4.5300 Br  0  0  0  0  0  0  0  0  0  0  0  0
    5.5680   -5.2870    3.6570 C   0  0  0  0  0  3  0  0  0  0  0  0
  1 22  1  0  0  0  0
  2  4  1  0  0  0  0
  2  1  1  0  0  0  0
  3  2  2  0  0  0  0
  4  5  1  0  0  0  0
  5  6  2  0  0  0  0
  7  8  1  0  0  0  0
  7  6  1  0  0  0  0
  9  7  2  0  0  0  0
 10  9  1  0  0  0  0
 10  4  2  0  0  0  0
 11  1  1  0  0  0  0
 11 13  1  0  0  0  0
 11 15  1  1  0  0  0
 12 13  2  0  0  0  0
 13 14  1  0  0  0  0
 16 15  1  0  0  0  0
 16 17  1  0  0  0  0
 18 17  2  0  0  0  0
 19 18  1  0  0  0  0
 20 21  1  0  0  0  0
 20 19  2  0  0  0  0
 21 16  2  0  0  0  0
 22 23  1  0  0  0  0
 23 29  1  0  0  0  0
 24 25  1  0  0  0  0
 24 23  2  0  0  0  0
 25 26  2  0  0  0  0
 26 27  1  0  0  0  0
 27 28  1  0  0  0  0
 29 27  2  0  0  0  0
M  END
>  <minimizedAffinity>
-5.67847204

$$$$
