
 OpenBabel09092210413D

 43 48  0  0  0  0  0  0  0  0999 V2000
    2.1500   -3.2610   -1.0030 C   0  0  0  0  0  0  0  0  0  0  0  0
    2.8080   -4.4730   -1.1750 C   0  0  0  0  0  3  0  0  0  0  0  0
    2.9790   -5.0000   -2.4590 C   0  0  0  0  0  3  0  0  0  0  0  0
    2.5160   -4.3270   -3.6020 C   0  0  0  0  0  0  0  0  0  0  0  0
    1.7880   -3.1250   -3.4220 C   0  0  0  0  0  0  0  0  0  0  0  0
    1.6420   -2.6000   -2.1240 C   0  0  0  0  0  3  0  0  0  0  0  0
    1.1460   -2.3570   -4.5100 C   0  0  0  0  0  3  0  0  0  0  0  0
    0.5750   -2.9380   -5.5810 C   0  0  0  0  0  0  0  0  0  0  0  0
    0.4500   -4.4310   -5.7190 C   0  0  0  0  0  2  0  0  0  0  0  0
    1.7720   -5.0210   -5.8900 N   0  0  0  0  0  0  0  0  0  0  0  0
    2.7630   -4.9410   -4.9320 C   0  0  0  0  0  0  0  0  0  0  0  0
    3.9270   -5.4760   -5.5060 C   0  0  0  0  0  0  0  0  0  0  0  0
    3.5430   -6.0380   -6.7840 C   0  0  0  0  0  0  0  0  0  0  0  0
    4.1950   -6.7920   -7.7920 C   0  0  0  0  0  3  0  0  0  0  0  0
    3.5360   -7.1270   -8.9830 C   0  0  0  0  0  3  0  0  0  0  0  0
    2.2440   -6.6730   -9.2070 C   0  0  0  0  0  0  0  0  0  0  0  0
    1.5510   -5.9590   -8.2240 C   0  0  0  0  0  3  0  0  0  0  0  0
    2.2130   -5.6740   -7.0160 C   0  0  0  0  0  0  0  0  0  0  0  0
    1.5710   -6.9720  -10.4840 C   0  0  0  0  0  0  0  0  0  0  0  0
    1.3890   -8.1170  -10.8610 O   0  0  0  0  0  0  0  0  0  0  0  0
    1.0280   -5.8740  -11.1840 N   0  0  0  0  0  0  0  0  0  0  0  0
    2.0200   -4.7210  -11.8790 S   0  0  0  0  0  0  0  0  0  0  0  0
    3.2770   -5.3500  -12.2070 O   0  0  0  0  0  0  0  0  0  0  0  0
    1.2120   -4.0920  -12.8990 O   0  0  0  0  0  0  0  0  0  0  0  0
    2.2560   -3.6290  -10.6530 N   0  0  0  0  0  0  0  0  0  0  0  0
    3.5130   -3.6090   -9.8980 C   0  0  0  0  0  1  0  0  0  0  0  0
    1.1650   -2.7520  -10.1890 C   0  0  0  0  0  2  0  0  0  0  0  0
    1.6430   -1.3000  -10.1690 C   0  0  0  0  0  2  0  0  0  0  0  0
    0.6150   -0.2540   -9.7330 C   0  0  0  0  0  2  0  0  0  0  0  0
   -0.1850   -0.5300   -8.4530 C   0  0  0  0  0  2  0  0  0  0  0  0
    0.5400   -1.1570   -7.3410 N   0  0  0  0  0  0  0  0  0  0  0  0
    1.7730   -0.5250   -6.8880 C   0  0  0  0  0  1  0  0  0  0  0  0
   -0.1160   -2.1840   -6.6650 C   0  0  0  0  0  0  0  0  0  0  0  0
   -1.2350   -2.5810   -6.9930 O   0  0  0  0  0  0  0  0  0  0  0  0
    0.4580   -6.2270  -11.9530 H   0  0  0  0  0  0  0  0  0  0  0  0
    5.3130   -5.3860   -4.8780 C   0  0  0  0  0  3  0  0  0  0  0  0
    5.8400   -6.6520   -4.1930 C   0  0  0  0  0  2  0  0  0  0  0  0
    7.1860   -6.3930   -3.5150 C   0  0  0  0  0  2  0  0  0  0  0  0
    8.2170   -5.8780   -4.5160 C   0  0  0  0  0  2  0  0  0  0  0  0
    7.7120   -4.6500   -5.2670 C   0  0  0  0  0  2  0  0  0  0  0  0
    6.3470   -4.8910   -5.9110 C   0  0  0  0  0  2  0  0  0  0  0  0
    0.9770   -1.5650    0.1790 C   0  0  0  0  0  1  0  0  0  0  0  0
    1.9190   -2.6300    0.1870 O   0  0  0  0  0  0  0  0  0  0  0  0
  1 43  1  0  0  0  0
  2  1  1  0  0  0  0
  3  2  2  0  0  0  0
  4  5  2  0  0  0  0
  4  3  1  0  0  0  0
  5  6  1  0  0  0  0
  6  1  2  0  0  0  0
  7  5  1  0  0  0  0
  8  7  2  0  0  0  0
  9  8  1  0  0  0  0
 10  9  1  0  0  0  0
 10 11  1  0  0  0  0
 11  4  1  0  0  0  0
 12 11  2  0  0  0  0
 12 36  1  0  0  0  0
 13 12  1  0  0  0  0
 14 13  2  0  0  0  0
 15 14  1  0  0  0  0
 16 15  2  0  0  0  0
 16 17  1  0  0  0  0
 17 18  2  0  0  0  0
 18 13  1  0  0  0  0
 18 10  1  0  0  0  0
 19 16  1  0  0  0  0
 20 19  2  0  0  0  0
 21 19  1  0  0  0  0
 22 21  1  0  0  0  0
 22 25  1  0  0  0  0
 23 22  2  0  0  0  0
 24 22  2  0  0  0  0
 25 27  1  0  0  0  0
 25 26  1  0  0  0  0
 27 28  1  0  0  0  0
 28 29  1  0  0  0  0
 29 30  1  0  0  0  0
 30 31  1  0  0  0  0
 31 32  1  0  0  0  0
 31 33  1  0  0  0  0
 33  8  1  0  0  0  0
 34 33  2  0  0  0  0
 35 21  1  0  0  0  0
 36 37  1  0  0  0  0
 37 38  1  0  0  0  0
 39 38  1  0  0  0  0
 40 39  1  0  0  0  0
 41 40  1  0  0  0  0
 41 36  1  0  0  0  0
 42 43  1  0  0  0  0
M  END
>  <minimizedAffinity>
-4.52988672

$$$$
