
 OpenBabel09092210413D

 43 48  0  0  0  0  0  0  0  0999 V2000
    8.0520   -7.7030   -7.1420 C   0  0  0  0  0  0  0  0  0  0  0  0
    8.8950   -7.5480   -6.0490 C   0  0  0  0  0  3  0  0  0  0  0  0
    8.3980   -7.0240   -4.8510 C   0  0  0  0  0  3  0  0  0  0  0  0
    7.0480   -6.6590   -4.7070 C   0  0  0  0  0  0  0  0  0  0  0  0
    6.2050   -6.7560   -5.8420 C   0  0  0  0  0  0  0  0  0  0  0  0
    6.7180   -7.3030   -7.0330 C   0  0  0  0  0  3  0  0  0  0  0  0
    4.7950   -6.3130   -5.8830 C   0  0  0  0  0  3  0  0  0  0  0  0
    4.3440   -5.2320   -5.2210 C   0  0  0  0  0  0  0  0  0  0  0  0
    5.2590   -4.3150   -4.4550 C   0  0  0  0  0  2  0  0  0  0  0  0
    5.7970   -5.0140   -3.2950 N   0  0  0  0  0  0  0  0  0  0  0  0
    6.5940   -6.1370   -3.3930 C   0  0  0  0  0  0  0  0  0  0  0  0
    6.7840   -6.6170   -2.0870 C   0  0  0  0  0  0  0  0  0  0  0  0
    6.2110   -5.6330   -1.1930 C   0  0  0  0  0  0  0  0  0  0  0  0
    6.1530   -5.4580    0.2130 C   0  0  0  0  0  3  0  0  0  0  0  0
    5.4320   -4.3980    0.7800 C   0  0  0  0  0  3  0  0  0  0  0  0
    4.7190   -3.5340   -0.0390 C   0  0  0  0  0  0  0  0  0  0  0  0
    4.7790   -3.6470   -1.4310 C   0  0  0  0  0  3  0  0  0  0  0  0
    5.5480   -4.6880   -1.9830 C   0  0  0  0  0  0  0  0  0  0  0  0
    3.9110   -2.4560    0.5580 C   0  0  0  0  0  0  0  0  0  0  0  0
    4.4070   -1.6010    1.2740 O   0  0  0  0  0  0  0  0  0  0  0  0
    2.5610   -2.3810    0.1560 N   0  0  0  0  0  0  0  0  0  0  0  0
    1.4640   -3.5630    0.5980 S   0  0  0  0  0  0  0  0  0  0  0  0
    1.9070   -4.1430    1.8430 O   0  0  0  0  0  0  0  0  0  0  0  0
    0.1670   -2.9370    0.4860 O   0  0  0  0  0  0  0  0  0  0  0  0
    1.6060   -4.6890   -0.6130 N   0  0  0  0  0  0  0  0  0  0  0  0
    2.3530   -5.9320   -0.3980 C   0  0  0  0  0  1  0  0  0  0  0  0
    1.1170   -4.4120   -1.9760 C   0  0  0  0  0  2  0  0  0  0  0  0
    0.2150   -5.5550   -2.4430 C   0  0  0  0  0  2  0  0  0  0  0  0
   -0.3990   -5.4080   -3.8380 C   0  0  0  0  0  2  0  0  0  0  0  0
    0.5340   -5.0100   -4.9890 C   0  0  0  0  0  2  0  0  0  0  0  0
    1.8790   -5.5990   -4.9860 N   0  0  0  0  0  0  0  0  0  0  0  0
    1.9870   -7.0500   -4.8940 C   0  0  0  0  0  1  0  0  0  0  0  0
    2.9370   -4.7450   -5.2870 C   0  0  0  0  0  0  0  0  0  0  0  0
    2.7740   -3.5450   -5.5130 O   0  0  0  0  0  0  0  0  0  0  0  0
    2.1630   -1.5100    0.5080 H   0  0  0  0  0  0  0  0  0  0  0  0
    7.4180   -7.9610   -1.7510 C   0  0  0  0  0  3  0  0  0  0  0  0
    8.5970   -7.9370   -0.7700 C   0  0  0  0  0  2  0  0  0  0  0  0
    9.2060   -9.3310   -0.6060 C   0  0  0  0  0  2  0  0  0  0  0  0
    8.1590  -10.3360   -0.1340 C   0  0  0  0  0  2  0  0  0  0  0  0
    6.9370  -10.3530   -1.0470 C   0  0  0  0  0  2  0  0  0  0  0  0
    6.3510   -8.9550   -1.2490 C   0  0  0  0  0  2  0  0  0  0  0  0
    9.6200   -8.9340   -8.4370 C   0  0  0  0  0  1  0  0  0  0  0  0
    8.4000   -8.2050   -8.3650 O   0  0  0  0  0  0  0  0  0  0  0  0
  1  6  2  0  0  0  0
  1  2  1  0  0  0  0
  2  3  2  0  0  0  0
  3  4  1  0  0  0  0
  4 11  1  0  0  0  0
  5  4  2  0  0  0  0
  6  5  1  0  0  0  0
  7  5  1  0  0  0  0
  7  8  2  0  0  0  0
  8  9  1  0  0  0  0
  9 10  1  0  0  0  0
 10 18  1  0  0  0  0
 11 10  1  0  0  0  0
 11 12  2  0  0  0  0
 12 36  1  0  0  0  0
 12 13  1  0  0  0  0
 13 14  1  0  0  0  0
 14 15  2  0  0  0  0
 16 19  1  0  0  0  0
 16 15  1  0  0  0  0
 17 16  2  0  0  0  0
 18 17  1  0  0  0  0
 18 13  2  0  0  0  0
 19 20  2  0  0  0  0
 21 35  1  0  0  0  0
 21 19  1  0  0  0  0
 21 22  1  0  0  0  0
 22 23  2  0  0  0  0
 24 22  2  0  0  0  0
 25 26  1  0  0  0  0
 25 22  1  0  0  0  0
 27 25  1  0  0  0  0
 28 27  1  0  0  0  0
 29 28  1  0  0  0  0
 30 31  1  0  0  0  0
 30 29  1  0  0  0  0
 31 32  1  0  0  0  0
 33  8  1  0  0  0  0
 33 31  1  0  0  0  0
 34 33  2  0  0  0  0
 36 41  1  0  0  0  0
 36 37  1  0  0  0  0
 37 38  1  0  0  0  0
 38 39  1  0  0  0  0
 40 39  1  0  0  0  0
 41 40  1  0  0  0  0
 42 43  1  0  0  0  0
 43  1  1  0  0  0  0
M  END
>  <minimizedAffinity>
-4.63078737

$$$$
