
 OpenBabel09092210413D

 43 48  0  0  0  0  0  0  0  0999 V2000
    8.6560   -6.9430   -6.0690 C   0  0  0  0  0  0  0  0  0  0  0  0
    8.6690   -5.7740   -5.3190 C   0  0  0  0  0  3  0  0  0  0  0  0
    7.4820   -5.0620   -5.1140 C   0  0  0  0  0  3  0  0  0  0  0  0
    6.2550   -5.5040   -5.6360 C   0  0  0  0  0  0  0  0  0  0  0  0
    6.2540   -6.6590   -6.4550 C   0  0  0  0  0  0  0  0  0  0  0  0
    7.4540   -7.3740   -6.6350 C   0  0  0  0  0  3  0  0  0  0  0  0
    5.0690   -7.1890   -7.1630 C   0  0  0  0  0  3  0  0  0  0  0  0
    4.1160   -6.4010   -7.6930 C   0  0  0  0  0  0  0  0  0  0  0  0
    4.2210   -4.9010   -7.7000 C   0  0  0  0  0  2  0  0  0  0  0  0
    4.1230   -4.3950   -6.3360 N   0  0  0  0  0  0  0  0  0  0  0  0
    5.0360   -4.7050   -5.3490 C   0  0  0  0  0  0  0  0  0  0  0  0
    4.5340   -4.1750   -4.1490 C   0  0  0  0  0  0  0  0  0  0  0  0
    3.3700   -3.3870   -4.4950 C   0  0  0  0  0  0  0  0  0  0  0  0
    2.4840   -2.5330   -3.7920 C   0  0  0  0  0  3  0  0  0  0  0  0
    1.3740   -1.9600   -4.4290 C   0  0  0  0  0  3  0  0  0  0  0  0
    1.1050   -2.2710   -5.7550 C   0  0  0  0  0  0  0  0  0  0  0  0
    1.9730   -3.0780   -6.4960 C   0  0  0  0  0  3  0  0  0  0  0  0
    3.1080   -3.6050   -5.8520 C   0  0  0  0  0  0  0  0  0  0  0  0
   -0.0950   -1.7190   -6.4100 C   0  0  0  0  0  0  0  0  0  0  0  0
   -0.2800   -0.5170   -6.5020 O   0  0  0  0  0  0  0  0  0  0  0  0
   -0.9520   -2.6440   -7.0420 N   0  0  0  0  0  0  0  0  0  0  0  0
   -1.8410   -3.7430   -6.1490 S   0  0  0  0  0  0  0  0  0  0  0  0
   -2.0880   -3.1690   -4.8480 O   0  0  0  0  0  0  0  0  0  0  0  0
   -2.9330   -4.1350   -7.0100 O   0  0  0  0  0  0  0  0  0  0  0  0
   -0.8100   -5.0340   -5.9930 N   0  0  0  0  0  0  0  0  0  0  0  0
   -0.0920   -5.2720   -4.7370 C   0  0  0  0  0  1  0  0  0  0  0  0
   -0.4730   -5.8870   -7.1470 C   0  0  0  0  0  2  0  0  0  0  0  0
   -0.6940   -7.3560   -6.7850 C   0  0  0  0  0  2  0  0  0  0  0  0
   -0.4120   -8.3760   -7.8910 C   0  0  0  0  0  2  0  0  0  0  0  0
    0.9100   -8.2490   -8.6580 C   0  0  0  0  0  2  0  0  0  0  0  0
    2.0950   -7.8670   -7.8790 N   0  0  0  0  0  0  0  0  0  0  0  0
    2.4170   -8.6580   -6.6970 C   0  0  0  0  0  1  0  0  0  0  0  0
    2.9380   -6.9160   -8.4480 C   0  0  0  0  0  0  0  0  0  0  0  0
    2.6990   -6.3850   -9.5340 O   0  0  0  0  0  0  0  0  0  0  0  0
   -1.6430   -2.1290   -7.5860 H   0  0  0  0  0  0  0  0  0  0  0  0
    5.1130   -4.4720   -2.7710 C   0  0  0  0  0  3  0  0  0  0  0  0
    4.7760   -3.4770   -1.6560 C   0  0  0  0  0  2  0  0  0  0  0  0
    5.5060   -3.8320   -0.3590 C   0  0  0  0  0  2  0  0  0  0  0  0
    5.1660   -5.2510    0.0920 C   0  0  0  0  0  2  0  0  0  0  0  0
    5.4300   -6.2730   -1.0090 C   0  0  0  0  0  2  0  0  0  0  0  0
    4.7370   -5.8990   -2.3190 C   0  0  0  0  0  2  0  0  0  0  0  0
    9.6810   -8.5070   -7.5380 C   0  0  0  0  0  1  0  0  0  0  0  0
    9.7340   -7.7380   -6.3420 O   0  0  0  0  0  0  0  0  0  0  0  0
  1  2  1  0  0  0  0
  2  3  2  0  0  0  0
  4 11  1  0  0  0  0
  4  3  1  0  0  0  0
  5  4  2  0  0  0  0
  6  5  1  0  0  0  0
  6  1  2  0  0  0  0
  7  5  1  0  0  0  0
  8  7  2  0  0  0  0
  9  8  1  0  0  0  0
  9 10  1  0  0  0  0
 10 18  1  0  0  0  0
 10 11  1  0  0  0  0
 11 12  2  0  0  0  0
 12 36  1  0  0  0  0
 13 12  1  0  0  0  0
 13 14  1  0  0  0  0
 15 14  2  0  0  0  0
 16 15  1  0  0  0  0
 17 18  1  0  0  0  0
 17 16  2  0  0  0  0
 18 13  2  0  0  0  0
 19 16  1  0  0  0  0
 20 19  2  0  0  0  0
 21 19  1  0  0  0  0
 21 22  1  0  0  0  0
 22 25  1  0  0  0  0
 22 23  2  0  0  0  0
 24 22  2  0  0  0  0
 25 26  1  0  0  0  0
 27 28  1  0  0  0  0
 27 25  1  0  0  0  0
 29 28  1  0  0  0  0
 30 29  1  0  0  0  0
 30 31  1  0  0  0  0
 31 32  1  0  0  0  0
 33 31  1  0  0  0  0
 33  8  1  0  0  0  0
 34 33  2  0  0  0  0
 35 21  1  0  0  0  0
 36 41  1  0  0  0  0
 36 37  1  0  0  0  0
 37 38  1  0  0  0  0
 38 39  1  0  0  0  0
 40 39  1  0  0  0  0
 41 40  1  0  0  0  0
 42 43  1  0  0  0  0
 43  1  1  0  0  0  0
M  END
>  <minimizedAffinity>
-4.75077295

$$$$
