
 OpenBabel09092210413D

 43 48  0  0  0  0  0  0  0  0999 V2000
    8.9380   -8.1720   -7.3340 C   0  0  0  0  0  0  0  0  0  0  0  0
    9.2690   -7.3850   -6.2380 C   0  0  0  0  0  3  0  0  0  0  0  0
    8.2910   -6.6000   -5.6200 C   0  0  0  0  0  3  0  0  0  0  0  0
    6.9580   -6.5920   -6.0660 C   0  0  0  0  0  0  0  0  0  0  0  0
    6.6360   -7.3440   -7.2230 C   0  0  0  0  0  0  0  0  0  0  0  0
    7.6290   -8.1430   -7.8200 C   0  0  0  0  0  3  0  0  0  0  0  0
    5.3100   -7.3550   -7.8780 C   0  0  0  0  0  3  0  0  0  0  0  0
    4.5160   -6.2710   -7.9500 C   0  0  0  0  0  0  0  0  0  0  0  0
    4.9520   -4.9190   -7.4550 C   0  0  0  0  0  2  0  0  0  0  0  0
    5.0760   -4.9430   -6.0030 N   0  0  0  0  0  0  0  0  0  0  0  0
    5.9740   -5.7520   -5.3370 C   0  0  0  0  0  0  0  0  0  0  0  0
    5.6990   -5.6220   -3.9660 C   0  0  0  0  0  0  0  0  0  0  0  0
    4.7150   -4.5690   -3.8350 C   0  0  0  0  0  0  0  0  0  0  0  0
    4.0990   -3.8910   -2.7530 C   0  0  0  0  0  3  0  0  0  0  0  0
    3.0970   -2.9360   -2.9750 C   0  0  0  0  0  3  0  0  0  0  0  0
    2.6610   -2.6830   -4.2680 C   0  0  0  0  0  0  0  0  0  0  0  0
    3.2670   -3.3000   -5.3660 C   0  0  0  0  0  3  0  0  0  0  0  0
    4.3040   -4.2200   -5.1260 C   0  0  0  0  0  0  0  0  0  0  0  0
    1.5650   -1.7240   -4.4990 C   0  0  0  0  0  0  0  0  0  0  0  0
    1.6440   -0.5600   -4.1420 O   0  0  0  0  0  0  0  0  0  0  0  0
    0.4770   -2.1820   -5.2700 N   0  0  0  0  0  0  0  0  0  0  0  0
   -0.5600   -3.3560   -4.6840 S   0  0  0  0  0  0  0  0  0  0  0  0
   -0.5690   -3.2680   -3.2440 O   0  0  0  0  0  0  0  0  0  0  0  0
   -1.7770   -3.2020   -5.4480 O   0  0  0  0  0  0  0  0  0  0  0  0
    0.1680   -4.7750   -5.1430 N   0  0  0  0  0  0  0  0  0  0  0  0
    0.9130   -5.5830   -4.1740 C   0  0  0  0  0  1  0  0  0  0  0  0
    0.2150   -5.1870   -6.5590 C   0  0  0  0  0  2  0  0  0  0  0  0
   -0.2980   -6.6210   -6.6950 C   0  0  0  0  0  2  0  0  0  0  0  0
   -0.3380   -7.1940   -8.1130 C   0  0  0  0  0  2  0  0  0  0  0  0
    0.9150   -7.0300   -8.9850 C   0  0  0  0  0  2  0  0  0  0  0  0
    2.2120   -7.1800   -8.3150 N   0  0  0  0  0  0  0  0  0  0  0  0
    2.4450   -8.3950   -7.5420 C   0  0  0  0  0  1  0  0  0  0  0  0
    3.1980   -6.2520   -8.6440 C   0  0  0  0  0  0  0  0  0  0  0  0
    2.9970   -5.3250   -9.4300 O   0  0  0  0  0  0  0  0  0  0  0  0
   -0.1250   -1.3890   -5.4900 H   0  0  0  0  0  0  0  0  0  0  0  0
    6.3060   -6.5050   -2.8820 C   0  0  0  0  0  3  0  0  0  0  0  0
    6.5200   -5.8560   -1.5090 C   0  0  0  0  0  2  0  0  0  0  0  0
    7.2320   -6.8140   -0.5520 C   0  0  0  0  0  2  0  0  0  0  0  0
    6.4510   -8.1160   -0.3940 C   0  0  0  0  0  2  0  0  0  0  0  0
    6.1610   -8.7690   -1.7410 C   0  0  0  0  0  2  0  0  0  0  0  0
    5.4880   -7.8020   -2.7160 C   0  0  0  0  0  2  0  0  0  0  0  0
    9.9990   -8.6820   -9.3990 C   0  0  0  0  0  1  0  0  0  0  0  0
    9.7880   -8.9890   -8.0270 O   0  0  0  0  0  0  0  0  0  0  0  0
  1  2  1  0  0  0  0
  2  3  2  0  0  0  0
  4  3  1  0  0  0  0
  4 11  1  0  0  0  0
  5  4  2  0  0  0  0
  6  1  2  0  0  0  0
  6  5  1  0  0  0  0
  7  5  1  0  0  0  0
  8  7  2  0  0  0  0
  8  9  1  0  0  0  0
  9 10  1  0  0  0  0
 10 11  1  0  0  0  0
 10 18  1  0  0  0  0
 11 12  2  0  0  0  0
 12 13  1  0  0  0  0
 12 36  1  0  0  0  0
 13 14  1  0  0  0  0
 15 14  2  0  0  0  0
 16 15  1  0  0  0  0
 17 18  1  0  0  0  0
 17 16  2  0  0  0  0
 18 13  2  0  0  0  0
 19 16  1  0  0  0  0
 19 20  2  0  0  0  0
 21 22  1  0  0  0  0
 21 19  1  0  0  0  0
 22 23  2  0  0  0  0
 24 22  2  0  0  0  0
 25 22  1  0  0  0  0
 25 26  1  0  0  0  0
 27 25  1  0  0  0  0
 28 27  1  0  0  0  0
 29 28  1  0  0  0  0
 30 31  1  0  0  0  0
 30 29  1  0  0  0  0
 31 32  1  0  0  0  0
 33 31  1  0  0  0  0
 33  8  1  0  0  0  0
 34 33  2  0  0  0  0
 35 21  1  0  0  0  0
 36 41  1  0  0  0  0
 36 37  1  0  0  0  0
 37 38  1  0  0  0  0
 38 39  1  0  0  0  0
 40 39  1  0  0  0  0
 41 40  1  0  0  0  0
 42 43  1  0  0  0  0
 43  1  1  0  0  0  0
M  END
>  <minimizedAffinity>
-4.62454891

$$$$
