
 OpenBabel09092210413D

 43 48  0  0  0  0  0  0  0  0999 V2000
    6.8940   -5.9110    0.4290 C   0  0  0  0  0  0  0  0  0  0  0  0
    6.0490   -4.9610    0.9880 C   0  0  0  0  0  3  0  0  0  0  0  0
    5.0840   -4.3300    0.1970 C   0  0  0  0  0  3  0  0  0  0  0  0
    4.9260   -4.6410   -1.1650 C   0  0  0  0  0  0  0  0  0  0  0  0
    5.8300   -5.5610   -1.7500 C   0  0  0  0  0  0  0  0  0  0  0  0
    6.7830   -6.2000   -0.9340 C   0  0  0  0  0  3  0  0  0  0  0  0
    5.8650   -5.9110   -3.1860 C   0  0  0  0  0  3  0  0  0  0  0  0
    5.6060   -5.0250   -4.1650 C   0  0  0  0  0  0  0  0  0  0  0  0
    5.3560   -3.5680   -3.8890 C   0  0  0  0  0  2  0  0  0  0  0  0
    4.0930   -3.4120   -3.1800 N   0  0  0  0  0  0  0  0  0  0  0  0
    3.8580   -3.9460   -1.9290 C   0  0  0  0  0  0  0  0  0  0  0  0
    2.5010   -3.7300   -1.6420 C   0  0  0  0  0  0  0  0  0  0  0  0
    1.9790   -2.8910   -2.6990 C   0  0  0  0  0  0  0  0  0  0  0  0
    0.7450   -2.2420   -2.9570 C   0  0  0  0  0  3  0  0  0  0  0  0
    0.5330   -1.5400   -4.1510 C   0  0  0  0  0  3  0  0  0  0  0  0
    1.5240   -1.5190   -5.1230 C   0  0  0  0  0  0  0  0  0  0  0  0
    2.7690   -2.1140   -4.8950 C   0  0  0  0  0  3  0  0  0  0  0  0
    2.9790   -2.7720   -3.6700 C   0  0  0  0  0  0  0  0  0  0  0  0
    1.2810   -0.8340   -6.4050 C   0  0  0  0  0  0  0  0  0  0  0  0
    1.0030    0.3530   -6.4560 O   0  0  0  0  0  0  0  0  0  0  0  0
    1.5170   -1.5830   -7.5770 N   0  0  0  0  0  0  0  0  0  0  0  0
    0.5350   -2.8740   -7.9850 S   0  0  0  0  0  0  0  0  0  0  0  0
   -0.7730   -2.6370   -7.4240 O   0  0  0  0  0  0  0  0  0  0  0  0
    0.7160   -3.0520   -9.4070 O   0  0  0  0  0  0  0  0  0  0  0  0
    1.2430   -4.1550   -7.2040 N   0  0  0  0  0  0  0  0  0  0  0  0
    0.6700   -4.6880   -5.9640 C   0  0  0  0  0  1  0  0  0  0  0  0
    2.5420   -4.6970   -7.6460 C   0  0  0  0  0  2  0  0  0  0  0  0
    2.4340   -6.2120   -7.8260 C   0  0  0  0  0  2  0  0  0  0  0  0
    3.6970   -6.9290   -8.3090 C   0  0  0  0  0  2  0  0  0  0  0  0
    5.0170   -6.6060   -7.5960 C   0  0  0  0  0  2  0  0  0  0  0  0
    4.9560   -6.4170   -6.1420 N   0  0  0  0  0  0  0  0  0  0  0  0
    4.3400   -7.4700   -5.3430 C   0  0  0  0  0  1  0  0  0  0  0  0
    5.6800   -5.3490   -5.6180 C   0  0  0  0  0  0  0  0  0  0  0  0
    6.3180   -4.5710   -6.3300 O   0  0  0  0  0  0  0  0  0  0  0  0
    1.4710   -0.9560   -8.3800 H   0  0  0  0  0  0  0  0  0  0  0  0
    1.7650   -4.3510   -0.4600 C   0  0  0  0  0  3  0  0  0  0  0  0
    1.1740   -3.3790    0.5670 C   0  0  0  0  0  2  0  0  0  0  0  0
    0.5610   -4.1310    1.7500 C   0  0  0  0  0  2  0  0  0  0  0  0
   -0.5150   -5.1080    1.2830 C   0  0  0  0  0  2  0  0  0  0  0  0
    0.0110   -6.0600    0.2120 C   0  0  0  0  0  2  0  0  0  0  0  0
    0.6630   -5.3130   -0.9510 C   0  0  0  0  0  2  0  0  0  0  0  0
    8.4020   -7.7490    0.4220 C   0  0  0  0  0  1  0  0  0  0  0  0
    7.8720   -6.6060    1.0830 O   0  0  0  0  0  0  0  0  0  0  0  0
  1  2  1  0  0  0  0
  1 43  1  0  0  0  0
  3  2  2  0  0  0  0
  4  3  1  0  0  0  0
  5  4  2  0  0  0  0
  5  6  1  0  0  0  0
  6  1  2  0  0  0  0
  7  5  1  0  0  0  0
  8  9  1  0  0  0  0
  8  7  2  0  0  0  0
  9 10  1  0  0  0  0
 10 11  1  0  0  0  0
 11 12  2  0  0  0  0
 11  4  1  0  0  0  0
 12 36  1  0  0  0  0
 13 12  1  0  0  0  0
 14 13  1  0  0  0  0
 15 14  2  0  0  0  0
 16 17  2  0  0  0  0
 16 15  1  0  0  0  0
 17 18  1  0  0  0  0
 18 10  1  0  0  0  0
 18 13  2  0  0  0  0
 19 16  1  0  0  0  0
 20 19  2  0  0  0  0
 21 19  1  0  0  0  0
 22 21  1  0  0  0  0
 22 23  2  0  0  0  0
 22 25  1  0  0  0  0
 24 22  2  0  0  0  0
 25 26  1  0  0  0  0
 27 25  1  0  0  0  0
 28 27  1  0  0  0  0
 29 28  1  0  0  0  0
 29 30  1  0  0  0  0
 30 31  1  0  0  0  0
 31 33  1  0  0  0  0
 31 32  1  0  0  0  0
 33  8  1  0  0  0  0
 34 33  2  0  0  0  0
 35 21  1  0  0  0  0
 36 37  1  0  0  0  0
 37 38  1  0  0  0  0
 39 38  1  0  0  0  0
 40 39  1  0  0  0  0
 41 36  1  0  0  0  0
 41 40  1  0  0  0  0
 42 43  1  0  0  0  0
M  END
>  <minimizedAffinity>
-4.8451705

$$$$
