
 OpenBabel09092210413D

 43 48  0  0  0  0  0  0  0  0999 V2000
    6.5550   -5.4260    0.3590 C   0  0  0  0  0  0  0  0  0  0  0  0
    5.5330   -4.5160    0.1200 C   0  0  0  0  0  3  0  0  0  0  0  0
    4.9850   -4.3990   -1.1610 C   0  0  0  0  0  3  0  0  0  0  0  0
    5.4290   -5.1970   -2.2300 C   0  0  0  0  0  0  0  0  0  0  0  0
    6.5160   -6.0760   -2.0020 C   0  0  0  0  0  0  0  0  0  0  0  0
    7.0420   -6.1940   -0.7010 C   0  0  0  0  0  3  0  0  0  0  0  0
    7.1670   -6.8990   -3.0440 C   0  0  0  0  0  3  0  0  0  0  0  0
    7.3330   -6.4830   -4.3120 C   0  0  0  0  0  0  0  0  0  0  0  0
    6.9590   -5.0970   -4.7620 C   0  0  0  0  0  2  0  0  0  0  0  0
    5.5100   -4.9400   -4.7190 N   0  0  0  0  0  0  0  0  0  0  0  0
    4.7760   -5.0310   -3.5540 C   0  0  0  0  0  0  0  0  0  0  0  0
    3.4220   -4.9860   -3.9220 C   0  0  0  0  0  0  0  0  0  0  0  0
    3.3830   -4.6900   -5.3380 C   0  0  0  0  0  0  0  0  0  0  0  0
    2.3640   -4.4180   -6.2860 C   0  0  0  0  0  3  0  0  0  0  0  0
    2.6680   -4.2380   -7.6420 C   0  0  0  0  0  3  0  0  0  0  0  0
    3.9780   -4.3770   -8.0790 C   0  0  0  0  0  0  0  0  0  0  0  0
    5.0190   -4.6070   -7.1740 C   0  0  0  0  0  3  0  0  0  0  0  0
    4.6990   -4.7370   -5.8100 C   0  0  0  0  0  0  0  0  0  0  0  0
    4.2910   -4.2490   -9.5140 C   0  0  0  0  0  0  0  0  0  0  0  0
    4.0380   -3.2320  -10.1380 O   0  0  0  0  0  0  0  0  0  0  0  0
    5.0200   -5.3060  -10.0990 N   0  0  0  0  0  0  0  0  0  0  0  0
    4.3330   -6.8170  -10.2980 S   0  0  0  0  0  0  0  0  0  0  0  0
    2.9050   -6.6480  -10.4280 O   0  0  0  0  0  0  0  0  0  0  0  0
    5.1060   -7.4510  -11.3410 O   0  0  0  0  0  0  0  0  0  0  0  0
    4.6660   -7.5820   -8.8630 N   0  0  0  0  0  0  0  0  0  0  0  0
    3.6300   -7.7380   -7.8380 C   0  0  0  0  0  1  0  0  0  0  0  0
    6.0400   -7.9910   -8.5160 C   0  0  0  0  0  2  0  0  0  0  0  0
    6.0500   -9.4630   -8.1010 C   0  0  0  0  0  2  0  0  0  0  0  0
    7.4130  -10.0530   -7.7320 C   0  0  0  0  0  2  0  0  0  0  0  0
    8.2960   -9.2570   -6.7610 C   0  0  0  0  0  2  0  0  0  0  0  0
    7.6160   -8.5810   -5.6500 N   0  0  0  0  0  0  0  0  0  0  0  0
    6.7400   -9.3780   -4.7990 C   0  0  0  0  0  1  0  0  0  0  0  0
    8.0260   -7.2800   -5.3640 C   0  0  0  0  0  0  0  0  0  0  0  0
    8.8900   -6.6990   -6.0230 O   0  0  0  0  0  0  0  0  0  0  0  0
    5.3080   -5.0240  -11.0360 H   0  0  0  0  0  0  0  0  0  0  0  0
    2.2650   -5.2750   -2.9730 C   0  0  0  0  0  3  0  0  0  0  0  0
    1.3200   -4.1070   -2.6670 C   0  0  0  0  0  2  0  0  0  0  0  0
    0.2740   -4.5010   -1.6230 C   0  0  0  0  0  2  0  0  0  0  0  0
   -0.5320   -5.7130   -2.0830 C   0  0  0  0  0  2  0  0  0  0  0  0
    0.3700   -6.8850   -2.4570 C   0  0  0  0  0  2  0  0  0  0  0  0
    1.4440   -6.4840   -3.4680 C   0  0  0  0  0  2  0  0  0  0  0  0
    7.5330   -6.9900    1.8580 C   0  0  0  0  0  1  0  0  0  0  0  0
    7.1740   -5.6470    1.5570 O   0  0  0  0  0  0  0  0  0  0  0  0
  1 43  1  0  0  0  0
  2  1  1  0  0  0  0
  3  2  2  0  0  0  0
  4  5  2  0  0  0  0
  4  3  1  0  0  0  0
  5  6  1  0  0  0  0
  6  1  2  0  0  0  0
  7  5  1  0  0  0  0
  8  7  2  0  0  0  0
  9 10  1  0  0  0  0
  9  8  1  0  0  0  0
 10 11  1  0  0  0  0
 11  4  1  0  0  0  0
 12 11  2  0  0  0  0
 12 36  1  0  0  0  0
 13 12  1  0  0  0  0
 14 13  2  0  0  0  0
 15 14  1  0  0  0  0
 16 15  2  0  0  0  0
 16 17  1  0  0  0  0
 17 18  2  0  0  0  0
 18 13  1  0  0  0  0
 18 10  1  0  0  0  0
 19 16  1  0  0  0  0
 20 19  2  0  0  0  0
 21 19  1  0  0  0  0
 22 21  1  0  0  0  0
 22 25  1  0  0  0  0
 23 22  2  0  0  0  0
 24 22  2  0  0  0  0
 25 27  1  0  0  0  0
 25 26  1  0  0  0  0
 27 28  1  0  0  0  0
 28 29  1  0  0  0  0
 29 30  1  0  0  0  0
 30 31  1  0  0  0  0
 31 33  1  0  0  0  0
 31 32  1  0  0  0  0
 33  8  1  0  0  0  0
 34 33  2  0  0  0  0
 35 21  1  0  0  0  0
 36 37  1  0  0  0  0
 37 38  1  0  0  0  0
 39 38  1  0  0  0  0
 40 39  1  0  0  0  0
 41 36  1  0  0  0  0
 41 40  1  0  0  0  0
 43 42  1  0  0  0  0
M  END
>  <minimizedAffinity>
-5.13904762

$$$$
