
 OpenBabel09092210413D

 43 48  0  0  0  0  0  0  0  0999 V2000
    5.4140   -4.0880    0.1510 C   0  0  0  0  0  0  0  0  0  0  0  0
    4.3030   -3.4200   -0.3470 C   0  0  0  0  0  3  0  0  0  0  0  0
    3.9110   -3.6070   -1.6760 C   0  0  0  0  0  3  0  0  0  0  0  0
    4.6050   -4.4770   -2.5360 C   0  0  0  0  0  0  0  0  0  0  0  0
    5.7760   -5.1060   -2.0470 C   0  0  0  0  0  0  0  0  0  0  0  0
    6.1440   -4.9210   -0.7010 C   0  0  0  0  0  3  0  0  0  0  0  0
    6.6730   -5.9610   -2.8550 C   0  0  0  0  0  3  0  0  0  0  0  0
    6.9320   -5.7310   -4.1550 C   0  0  0  0  0  0  0  0  0  0  0  0
    6.4100   -4.5210   -4.8810 C   0  0  0  0  0  2  0  0  0  0  0  0
    4.9610   -4.6130   -5.0100 N   0  0  0  0  0  0  0  0  0  0  0  0
    4.1070   -4.6420   -3.9250 C   0  0  0  0  0  0  0  0  0  0  0  0
    2.8200   -4.8920   -4.4270 C   0  0  0  0  0  0  0  0  0  0  0  0
    2.9170   -4.8380   -5.8710 C   0  0  0  0  0  0  0  0  0  0  0  0
    1.9970   -4.9030   -6.9480 C   0  0  0  0  0  3  0  0  0  0  0  0
    2.4390   -4.8930   -8.2780 C   0  0  0  0  0  3  0  0  0  0  0  0
    3.7990   -4.8710   -8.5510 C   0  0  0  0  0  0  0  0  0  0  0  0
    4.7400   -4.7690   -7.5210 C   0  0  0  0  0  3  0  0  0  0  0  0
    4.2730   -4.7310   -6.1940 C   0  0  0  0  0  0  0  0  0  0  0  0
    4.2690   -4.9230   -9.9470 C   0  0  0  0  0  0  0  0  0  0  0  0
    3.9430   -4.0790  -10.7660 O   0  0  0  0  0  0  0  0  0  0  0  0
    5.2200   -5.9170  -10.2580 N   0  0  0  0  0  0  0  0  0  0  0  0
    4.8040   -7.5370  -10.2500 S   0  0  0  0  0  0  0  0  0  0  0  0
    3.3960   -7.6400  -10.5480 O   0  0  0  0  0  0  0  0  0  0  0  0
    5.7920   -8.1860  -11.0810 O   0  0  0  0  0  0  0  0  0  0  0  0
    5.0670   -7.9920   -8.6760 N   0  0  0  0  0  0  0  0  0  0  0  0
    3.9450   -8.1590   -7.7470 C   0  0  0  0  0  1  0  0  0  0  0  0
    6.4310   -8.0950   -8.1270 C   0  0  0  0  0  2  0  0  0  0  0  0
    6.6150   -9.4570   -7.4550 C   0  0  0  0  0  2  0  0  0  0  0  0
    7.9940   -9.7350   -6.8540 C   0  0  0  0  0  2  0  0  0  0  0  0
    8.6140   -8.6530   -5.9590 C   0  0  0  0  0  2  0  0  0  0  0  0
    7.7030   -7.9350   -5.0600 N   0  0  0  0  0  0  0  0  0  0  0  0
    6.8590   -8.7250   -4.1710 C   0  0  0  0  0  1  0  0  0  0  0  0
    7.8670   -6.5540   -4.9730 C   0  0  0  0  0  0  0  0  0  0  0  0
    8.7090   -5.9460   -5.6370 O   0  0  0  0  0  0  0  0  0  0  0  0
    5.5780   -5.7440  -11.1970 H   0  0  0  0  0  0  0  0  0  0  0  0
    1.6100   -5.2200   -3.5610 C   0  0  0  0  0  3  0  0  0  0  0  0
    0.4320   -4.2420   -3.6290 C   0  0  0  0  0  2  0  0  0  0  0  0
   -0.6640   -4.6290   -2.6340 C   0  0  0  0  0  2  0  0  0  0  0  0
   -1.1570   -6.0520   -2.8850 C   0  0  0  0  0  2  0  0  0  0  0  0
   -0.0090   -7.0560   -2.8870 C   0  0  0  0  0  2  0  0  0  0  0  0
    1.1080   -6.6510   -3.8480 C   0  0  0  0  0  2  0  0  0  0  0  0
    6.8700   -2.9920    1.6770 C   0  0  0  0  0  1  0  0  0  0  0  0
    5.9030   -4.0040    1.4250 O   0  0  0  0  0  0  0  0  0  0  0  0
  1 43  1  0  0  0  0
  2  1  1  0  0  0  0
  3  2  2  0  0  0  0
  4  5  2  0  0  0  0
  4  3  1  0  0  0  0
  5  6  1  0  0  0  0
  6  1  2  0  0  0  0
  7  5  1  0  0  0  0
  8  7  2  0  0  0  0
  9  8  1  0  0  0  0
 10  9  1  0  0  0  0
 10 11  1  0  0  0  0
 11  4  1  0  0  0  0
 12 11  2  0  0  0  0
 12 36  1  0  0  0  0
 13 12  1  0  0  0  0
 14 13  2  0  0  0  0
 15 14  1  0  0  0  0
 16 15  2  0  0  0  0
 16 17  1  0  0  0  0
 17 18  2  0  0  0  0
 18 13  1  0  0  0  0
 18 10  1  0  0  0  0
 19 16  1  0  0  0  0
 20 19  2  0  0  0  0
 21 22  1  0  0  0  0
 21 19  1  0  0  0  0
 22 25  1  0  0  0  0
 23 22  2  0  0  0  0
 24 22  2  0  0  0  0
 25 27  1  0  0  0  0
 25 26  1  0  0  0  0
 27 28  1  0  0  0  0
 28 29  1  0  0  0  0
 29 30  1  0  0  0  0
 30 31  1  0  0  0  0
 31 33  1  0  0  0  0
 31 32  1  0  0  0  0
 33  8  1  0  0  0  0
 34 33  2  0  0  0  0
 35 21  1  0  0  0  0
 37 36  1  0  0  0  0
 37 38  1  0  0  0  0
 39 38  1  0  0  0  0
 40 39  1  0  0  0  0
 41 36  1  0  0  0  0
 41 40  1  0  0  0  0
 43 42  1  0  0  0  0
M  END
>  <minimizedAffinity>
-5.12668037

$$$$
