
 OpenBabel09092210413D

 43 48  0  0  0  0  0  0  0  0999 V2000
    6.5400   -5.4250    0.3630 C   0  0  0  0  0  0  0  0  0  0  0  0
    5.5110   -4.5220    0.1230 C   0  0  0  0  0  3  0  0  0  0  0  0
    4.9640   -4.4080   -1.1590 C   0  0  0  0  0  3  0  0  0  0  0  0
    5.4160   -5.2000   -2.2280 C   0  0  0  0  0  0  0  0  0  0  0  0
    6.5080   -6.0730   -1.9990 C   0  0  0  0  0  0  0  0  0  0  0  0
    7.0330   -6.1890   -0.6980 C   0  0  0  0  0  3  0  0  0  0  0  0
    7.1660   -6.8900   -3.0410 C   0  0  0  0  0  3  0  0  0  0  0  0
    7.3310   -6.4710   -4.3090 C   0  0  0  0  0  0  0  0  0  0  0  0
    6.9480   -5.0870   -4.7570 C   0  0  0  0  0  2  0  0  0  0  0  0
    5.4990   -4.9400   -4.7170 N   0  0  0  0  0  0  0  0  0  0  0  0
    4.7630   -5.0380   -3.5520 C   0  0  0  0  0  0  0  0  0  0  0  0
    3.4090   -5.0020   -3.9220 C   0  0  0  0  0  0  0  0  0  0  0  0
    3.3710   -4.7040   -5.3380 C   0  0  0  0  0  0  0  0  0  0  0  0
    2.3510   -4.4390   -6.2870 C   0  0  0  0  0  3  0  0  0  0  0  0
    2.6560   -4.2550   -7.6430 C   0  0  0  0  0  3  0  0  0  0  0  0
    3.9670   -4.3840   -8.0780 C   0  0  0  0  0  0  0  0  0  0  0  0
    5.0080   -4.6080   -7.1720 C   0  0  0  0  0  3  0  0  0  0  0  0
    4.6880   -4.7420   -5.8080 C   0  0  0  0  0  0  0  0  0  0  0  0
    4.2820   -4.2520   -9.5120 C   0  0  0  0  0  0  0  0  0  0  0  0
    4.0220   -3.2360  -10.1360 O   0  0  0  0  0  0  0  0  0  0  0  0
    5.0180   -5.3030  -10.0970 N   0  0  0  0  0  0  0  0  0  0  0  0
    4.3420   -6.8190  -10.2990 S   0  0  0  0  0  0  0  0  0  0  0  0
    2.9140   -6.6590  -10.4310 O   0  0  0  0  0  0  0  0  0  0  0  0
    5.1220   -7.4460  -11.3420 O   0  0  0  0  0  0  0  0  0  0  0  0
    4.6790   -7.5830   -8.8650 N   0  0  0  0  0  0  0  0  0  0  0  0
    3.6420   -7.7480   -7.8420 C   0  0  0  0  0  1  0  0  0  0  0  0
    6.0550   -7.9830   -8.5160 C   0  0  0  0  0  2  0  0  0  0  0  0
    6.0750   -9.4550   -8.1020 C   0  0  0  0  0  2  0  0  0  0  0  0
    7.4410  -10.0360   -7.7320 C   0  0  0  0  0  2  0  0  0  0  0  0
    8.3170   -9.2360   -6.7590 C   0  0  0  0  0  2  0  0  0  0  0  0
    7.6310   -8.5650   -5.6480 N   0  0  0  0  0  0  0  0  0  0  0  0
    6.7590   -9.3700   -4.8000 C   0  0  0  0  0  1  0  0  0  0  0  0
    8.0310   -7.2620   -5.3600 C   0  0  0  0  0  0  0  0  0  0  0  0
    8.8920   -6.6750   -6.0180 O   0  0  0  0  0  0  0  0  0  0  0  0
    5.3060   -5.0190  -11.0330 H   0  0  0  0  0  0  0  0  0  0  0  0
    2.2530   -5.3000   -2.9750 C   0  0  0  0  0  3  0  0  0  0  0  0
    1.2240   -4.1810   -2.7750 C   0  0  0  0  0  2  0  0  0  0  0  0
    0.1840   -4.5690   -1.7230 C   0  0  0  0  0  2  0  0  0  0  0  0
   -0.5270   -5.8650   -2.1050 C   0  0  0  0  0  2  0  0  0  0  0  0
    0.4610   -6.9950   -2.3740 C   0  0  0  0  0  2  0  0  0  0  0  0
    1.5280   -6.5960   -3.3930 C   0  0  0  0  0  2  0  0  0  0  0  0
    7.5330   -6.9830    1.8580 C   0  0  0  0  0  1  0  0  0  0  0  0
    7.1590   -5.6440    1.5610 O   0  0  0  0  0  0  0  0  0  0  0  0
  1 43  1  0  0  0  0
  2  1  1  0  0  0  0
  3  2  2  0  0  0  0
  4  5  2  0  0  0  0
  4  3  1  0  0  0  0
  5  6  1  0  0  0  0
  6  1  2  0  0  0  0
  7  5  1  0  0  0  0
  8  7  2  0  0  0  0
  9 10  1  0  0  0  0
  9  8  1  0  0  0  0
 10 11  1  0  0  0  0
 11  4  1  0  0  0  0
 12 11  2  0  0  0  0
 12 36  1  0  0  0  0
 13 12  1  0  0  0  0
 14 13  2  0  0  0  0
 15 14  1  0  0  0  0
 16 15  2  0  0  0  0
 16 17  1  0  0  0  0
 17 18  2  0  0  0  0
 18 13  1  0  0  0  0
 18 10  1  0  0  0  0
 19 16  1  0  0  0  0
 20 19  2  0  0  0  0
 21 19  1  0  0  0  0
 22 21  1  0  0  0  0
 22 25  1  0  0  0  0
 23 22  2  0  0  0  0
 24 22  2  0  0  0  0
 25 27  1  0  0  0  0
 25 26  1  0  0  0  0
 27 28  1  0  0  0  0
 28 29  1  0  0  0  0
 29 30  1  0  0  0  0
 30 31  1  0  0  0  0
 31 33  1  0  0  0  0
 31 32  1  0  0  0  0
 33  8  1  0  0  0  0
 34 33  2  0  0  0  0
 35 21  1  0  0  0  0
 36 37  1  0  0  0  0
 37 38  1  0  0  0  0
 39 38  1  0  0  0  0
 40 39  1  0  0  0  0
 41 36  1  0  0  0  0
 41 40  1  0  0  0  0
 43 42  1  0  0  0  0
M  END
>  <minimizedAffinity>
-5.1359334

$$$$
