
 OpenBabel09092210413D

 43 48  0  0  0  0  0  0  0  0999 V2000
    2.6480   -2.9550   -8.2870 C   0  0  0  0  0  0  0  0  0  0  0  0
    3.5480   -3.7900   -8.9370 C   0  0  0  0  0  3  0  0  0  0  0  0
    4.3230   -4.6920   -8.2010 C   0  0  0  0  0  3  0  0  0  0  0  0
    4.2080   -4.7960   -6.8040 C   0  0  0  0  0  0  0  0  0  0  0  0
    3.3380   -3.9000   -6.1360 C   0  0  0  0  0  0  0  0  0  0  0  0
    2.5520   -3.0120   -6.8950 C   0  0  0  0  0  3  0  0  0  0  0  0
    3.1860   -3.8100   -4.6670 C   0  0  0  0  0  3  0  0  0  0  0  0
    4.2070   -3.9880   -3.8100 C   0  0  0  0  0  0  0  0  0  0  0  0
    5.6230   -4.1960   -4.2750 C   0  0  0  0  0  2  0  0  0  0  0  0
    5.7360   -5.4860   -4.9450 N   0  0  0  0  0  0  0  0  0  0  0  0
    5.0460   -5.7990   -6.0990 C   0  0  0  0  0  0  0  0  0  0  0  0
    5.2800   -7.1590   -6.3560 C   0  0  0  0  0  0  0  0  0  0  0  0
    6.2780   -7.5990   -5.4040 C   0  0  0  0  0  0  0  0  0  0  0  0
    7.0090   -8.7940   -5.1870 C   0  0  0  0  0  3  0  0  0  0  0  0
    7.8760   -8.9220   -4.0930 C   0  0  0  0  0  3  0  0  0  0  0  0
    7.9860   -7.8860   -3.1760 C   0  0  0  0  0  0  0  0  0  0  0  0
    7.3120   -6.6770   -3.3720 C   0  0  0  0  0  3  0  0  0  0  0  0
    6.4840   -6.5500   -4.5020 C   0  0  0  0  0  0  0  0  0  0  0  0
    8.8500   -8.0420   -1.9920 C   0  0  0  0  0  0  0  0  0  0  0  0
   10.0440   -8.2720   -2.0940 O   0  0  0  0  0  0  0  0  0  0  0  0
    8.2580   -7.7790   -0.7390 N   0  0  0  0  0  0  0  0  0  0  0  0
    7.0790   -8.7880   -0.1150 S   0  0  0  0  0  0  0  0  0  0  0  0
    7.2940  -10.1120   -0.6480 O   0  0  0  0  0  0  0  0  0  0  0  0
    7.0890   -8.5470    1.3090 O   0  0  0  0  0  0  0  0  0  0  0  0
    5.6730   -8.1660   -0.7400 N   0  0  0  0  0  0  0  0  0  0  0  0
    5.0020   -8.8170   -1.8690 C   0  0  0  0  0  1  0  0  0  0  0  0
    5.1410   -6.8690   -0.2830 C   0  0  0  0  0  2  0  0  0  0  0  0
    3.6710   -7.0250    0.1090 C   0  0  0  0  0  2  0  0  0  0  0  0
    2.9720   -5.7680    0.6340 C   0  0  0  0  0  2  0  0  0  0  0  0
    3.1370   -4.4720   -0.1720 C   0  0  0  0  0  2  0  0  0  0  0  0
    3.1280   -4.5960   -1.6350 N   0  0  0  0  0  0  0  0  0  0  0  0
    2.0030   -5.2880   -2.2540 C   0  0  0  0  0  1  0  0  0  0  0  0
    4.0820   -3.8580   -2.3310 C   0  0  0  0  0  0  0  0  0  0  0  0
    4.9220   -3.1580   -1.7610 O   0  0  0  0  0  0  0  0  0  0  0  0
    8.9900   -7.7630   -0.0290 H   0  0  0  0  0  0  0  0  0  0  0  0
    4.5370   -7.9740   -7.4080 C   0  0  0  0  0  3  0  0  0  0  0  0
    5.3790   -8.5430   -8.5560 C   0  0  0  0  0  2  0  0  0  0  0  0
    4.4970   -9.2420   -9.5930 C   0  0  0  0  0  2  0  0  0  0  0  0
    3.6730  -10.3560   -8.9520 C   0  0  0  0  0  2  0  0  0  0  0  0
    2.8620   -9.8490   -7.7640 C   0  0  0  0  0  2  0  0  0  0  0  0
    3.7320   -9.1120   -6.7460 C   0  0  0  0  0  2  0  0  0  0  0  0
    1.9650   -0.6840   -8.4600 C   0  0  0  0  0  1  0  0  0  0  0  0
    1.8280   -2.0360   -8.8800 O   0  0  0  0  0  0  0  0  0  0  0  0
  1  6  1  0  0  0  0
  2  1  2  0  0  0  0
  2  3  1  0  0  0  0
  3  4  2  0  0  0  0
  4  5  1  0  0  0  0
  4 11  1  0  0  0  0
  5  7  1  0  0  0  0
  6  5  2  0  0  0  0
  7  8  2  0  0  0  0
  8 33  1  0  0  0  0
  9  8  1  0  0  0  0
 10 18  1  0  0  0  0
 10  9  1  0  0  0  0
 11 10  1  0  0  0  0
 12 11  2  0  0  0  0
 12 13  1  0  0  0  0
 13 14  2  0  0  0  0
 13 18  1  0  0  0  0
 14 15  1  0  0  0  0
 15 16  2  0  0  0  0
 16 19  1  0  0  0  0
 17 16  1  0  0  0  0
 18 17  2  0  0  0  0
 19 21  1  0  0  0  0
 20 19  2  0  0  0  0
 21 22  1  0  0  0  0
 21 35  1  0  0  0  0
 22 24  2  0  0  0  0
 23 22  2  0  0  0  0
 25 27  1  0  0  0  0
 25 22  1  0  0  0  0
 26 25  1  0  0  0  0
 27 28  1  0  0  0  0
 28 29  1  0  0  0  0
 30 29  1  0  0  0  0
 31 30  1  0  0  0  0
 32 31  1  0  0  0  0
 33 34  2  0  0  0  0
 33 31  1  0  0  0  0
 36 41  1  0  0  0  0
 36 12  1  0  0  0  0
 37 36  1  0  0  0  0
 38 39  1  0  0  0  0
 38 37  1  0  0  0  0
 39 40  1  0  0  0  0
 40 41  1  0  0  0  0
 43 42  1  0  0  0  0
 43  1  1  0  0  0  0
M  END
>  <minimizedAffinity>
-4.5800786

$$$$
