
 OpenBabel09092210413D

 43 48  0  0  0  0  0  0  0  0999 V2000
    0.0820   -0.9120   -4.8370 C   0  0  0  0  0  0  0  0  0  0  0  0
    0.4760   -1.2380   -6.1290 C   0  0  0  0  0  3  0  0  0  0  0  0
    1.4760   -2.1940   -6.3350 C   0  0  0  0  0  3  0  0  0  0  0  0
    2.0960   -2.8590   -5.2630 C   0  0  0  0  0  0  0  0  0  0  0  0
    1.7410   -2.4780   -3.9450 C   0  0  0  0  0  0  0  0  0  0  0  0
    0.7190   -1.5290   -3.7570 C   0  0  0  0  0  3  0  0  0  0  0  0
    2.3760   -3.0030   -2.7170 C   0  0  0  0  0  3  0  0  0  0  0  0
    3.6840   -3.3080   -2.6380 C   0  0  0  0  0  0  0  0  0  0  0  0
    4.6430   -3.0460   -3.7670 C   0  0  0  0  0  2  0  0  0  0  0  0
    4.3310   -3.9220   -4.8890 N   0  0  0  0  0  0  0  0  0  0  0  0
    3.1300   -3.8800   -5.5680 C   0  0  0  0  0  0  0  0  0  0  0  0
    3.1320   -4.9600   -6.4660 C   0  0  0  0  0  0  0  0  0  0  0  0
    4.4560   -5.5420   -6.4160 C   0  0  0  0  0  0  0  0  0  0  0  0
    5.1370   -6.5650   -7.1240 C   0  0  0  0  0  3  0  0  0  0  0  0
    6.4380   -6.9470   -6.7680 C   0  0  0  0  0  3  0  0  0  0  0  0
    7.0550   -6.3540   -5.6750 C   0  0  0  0  0  0  0  0  0  0  0  0
    6.4360   -5.3150   -4.9740 C   0  0  0  0  0  3  0  0  0  0  0  0
    5.1490   -4.9130   -5.3760 C   0  0  0  0  0  0  0  0  0  0  0  0
    8.3990   -6.7970   -5.2610 C   0  0  0  0  0  0  0  0  0  0  0  0
    9.3550   -6.7400   -6.0170 O   0  0  0  0  0  0  0  0  0  0  0  0
    8.5550   -7.1640   -3.9090 N   0  0  0  0  0  0  0  0  0  0  0  0
    7.8220   -8.5390   -3.3000 S   0  0  0  0  0  0  0  0  0  0  0  0
    7.6670   -9.4810   -4.3820 O   0  0  0  0  0  0  0  0  0  0  0  0
    8.5800   -8.8800   -2.1180 O   0  0  0  0  0  0  0  0  0  0  0  0
    6.3280   -7.9980   -2.8250 N   0  0  0  0  0  0  0  0  0  0  0  0
    5.1390   -8.2670   -3.6400 C   0  0  0  0  0  1  0  0  0  0  0  0
    6.1710   -7.1110   -1.6570 C   0  0  0  0  0  2  0  0  0  0  0  0
    5.1110   -7.6820   -0.7140 C   0  0  0  0  0  2  0  0  0  0  0  0
    4.8450   -6.8880    0.5670 C   0  0  0  0  0  2  0  0  0  0  0  0
    4.6300   -5.3750    0.4360 C   0  0  0  0  0  2  0  0  0  0  0  0
    3.8590   -4.9130   -0.7240 N   0  0  0  0  0  0  0  0  0  0  0  0
    2.5450   -5.5040   -0.9500 C   0  0  0  0  0  1  0  0  0  0  0  0
    4.3490   -3.7950   -1.3960 C   0  0  0  0  0  0  0  0  0  0  0  0
    5.3940   -3.2320   -1.0670 O   0  0  0  0  0  0  0  0  0  0  0  0
    9.5480   -7.2910   -3.7170 H   0  0  0  0  0  0  0  0  0  0  0  0
    1.9140   -5.4190   -7.2580 C   0  0  0  0  0  3  0  0  0  0  0  0
    2.0130   -5.3260   -8.7850 C   0  0  0  0  0  2  0  0  0  0  0  0
    0.6900   -5.7130   -9.4490 C   0  0  0  0  0  2  0  0  0  0  0  0
    0.2630   -7.1210   -9.0420 C   0  0  0  0  0  2  0  0  0  0  0  0
    0.2080   -7.2810   -7.5260 C   0  0  0  0  0  2  0  0  0  0  0  0
    1.5130   -6.8540   -6.8550 C   0  0  0  0  0  2  0  0  0  0  0  0
   -0.6060    0.8330   -3.3770 C   0  0  0  0  0  1  0  0  0  0  0  0
   -0.8810   -0.0070   -4.4920 O   0  0  0  0  0  0  0  0  0  0  0  0
  1 43  1  0  0  0  0
  1  6  1  0  0  0  0
  2  1  2  0  0  0  0
  3  2  1  0  0  0  0
  3  4  2  0  0  0  0
  4  5  1  0  0  0  0
  5  6  2  0  0  0  0
  5  7  1  0  0  0  0
  7  8  2  0  0  0  0
  8 33  1  0  0  0  0
  9  8  1  0  0  0  0
 10  9  1  0  0  0  0
 11  4  1  0  0  0  0
 11 10  1  0  0  0  0
 12 13  1  0  0  0  0
 12 11  2  0  0  0  0
 13 18  1  0  0  0  0
 14 15  1  0  0  0  0
 14 13  2  0  0  0  0
 15 16  2  0  0  0  0
 16 19  1  0  0  0  0
 16 17  1  0  0  0  0
 18 17  2  0  0  0  0
 18 10  1  0  0  0  0
 19 21  1  0  0  0  0
 20 19  2  0  0  0  0
 21 35  1  0  0  0  0
 21 22  1  0  0  0  0
 22 25  1  0  0  0  0
 22 24  2  0  0  0  0
 23 22  2  0  0  0  0
 25 27  1  0  0  0  0
 26 25  1  0  0  0  0
 27 28  1  0  0  0  0
 28 29  1  0  0  0  0
 30 29  1  0  0  0  0
 31 30  1  0  0  0  0
 32 31  1  0  0  0  0
 33 34  2  0  0  0  0
 33 31  1  0  0  0  0
 36 41  1  0  0  0  0
 36 12  1  0  0  0  0
 37 36  1  0  0  0  0
 38 39  1  0  0  0  0
 38 37  1  0  0  0  0
 39 40  1  0  0  0  0
 40 41  1  0  0  0  0
 43 42  1  0  0  0  0
M  END
>  <minimizedAffinity>
-4.62681532

$$$$
