
 OpenBabel09092210413D

 43 48  0  0  0  0  0  0  0  0999 V2000
    8.6430   -6.9280   -6.0840 C   0  0  0  0  0  0  0  0  0  0  0  0
    8.6430   -5.7610   -5.3300 C   0  0  0  0  0  3  0  0  0  0  0  0
    7.4500   -5.0610   -5.1240 C   0  0  0  0  0  3  0  0  0  0  0  0
    6.2270   -5.5150   -5.6480 C   0  0  0  0  0  0  0  0  0  0  0  0
    6.2390   -6.6670   -6.4710 C   0  0  0  0  0  0  0  0  0  0  0  0
    7.4450   -7.3700   -6.6510 C   0  0  0  0  0  3  0  0  0  0  0  0
    5.0590   -7.2080   -7.1810 C   0  0  0  0  0  3  0  0  0  0  0  0
    4.0980   -6.4280   -7.7090 C   0  0  0  0  0  0  0  0  0  0  0  0
    4.1890   -4.9260   -7.7120 C   0  0  0  0  0  2  0  0  0  0  0  0
    4.0840   -4.4250   -6.3470 N   0  0  0  0  0  0  0  0  0  0  0  0
    5.0000   -4.7280   -5.3600 C   0  0  0  0  0  0  0  0  0  0  0  0
    4.4920   -4.2070   -4.1590 C   0  0  0  0  0  0  0  0  0  0  0  0
    3.3200   -3.4300   -4.5040 C   0  0  0  0  0  0  0  0  0  0  0  0
    2.4250   -2.5860   -3.7990 C   0  0  0  0  0  3  0  0  0  0  0  0
    1.3100   -2.0230   -4.4360 C   0  0  0  0  0  3  0  0  0  0  0  0
    1.0450   -2.3340   -5.7620 C   0  0  0  0  0  0  0  0  0  0  0  0
    1.9220   -3.1300   -6.5050 C   0  0  0  0  0  3  0  0  0  0  0  0
    3.0610   -3.6460   -5.8610 C   0  0  0  0  0  0  0  0  0  0  0  0
   -0.1600   -1.7920   -6.4160 C   0  0  0  0  0  0  0  0  0  0  0  0
   -0.3580   -0.5920   -6.5060 O   0  0  0  0  0  0  0  0  0  0  0  0
   -1.0070   -2.7240   -7.0520 N   0  0  0  0  0  0  0  0  0  0  0  0
   -1.8860   -3.8340   -6.1620 S   0  0  0  0  0  0  0  0  0  0  0  0
   -2.1390   -3.2660   -4.8600 O   0  0  0  0  0  0  0  0  0  0  0  0
   -2.9740   -4.2350   -7.0250 O   0  0  0  0  0  0  0  0  0  0  0  0
   -0.8420   -5.1150   -6.0090 N   0  0  0  0  0  0  0  0  0  0  0  0
   -0.1230   -5.3500   -4.7530 C   0  0  0  0  0  1  0  0  0  0  0  0
   -0.4950   -5.9620   -7.1650 C   0  0  0  0  0  2  0  0  0  0  0  0
   -0.7020   -7.4340   -6.8080 C   0  0  0  0  0  2  0  0  0  0  0  0
   -0.4090   -8.4480   -7.9150 C   0  0  0  0  0  2  0  0  0  0  0  0
    0.9130   -8.3050   -8.6820 C   0  0  0  0  0  2  0  0  0  0  0  0
    2.0930   -7.9140   -7.9010 N   0  0  0  0  0  0  0  0  0  0  0  0
    2.4220   -8.7040   -6.7210 C   0  0  0  0  0  1  0  0  0  0  0  0
    2.9270   -6.9520   -8.4660 C   0  0  0  0  0  0  0  0  0  0  0  0
    2.6830   -6.4210   -9.5510 O   0  0  0  0  0  0  0  0  0  0  0  0
   -1.7040   -2.2150   -7.5950 H   0  0  0  0  0  0  0  0  0  0  0  0
    5.0730   -4.5020   -2.7820 C   0  0  0  0  0  3  0  0  0  0  0  0
    4.7580   -3.4910   -1.6730 C   0  0  0  0  0  2  0  0  0  0  0  0
    5.4880   -3.8480   -0.3770 C   0  0  0  0  0  2  0  0  0  0  0  0
    5.1280   -5.2560    0.0880 C   0  0  0  0  0  2  0  0  0  0  0  0
    5.3680   -6.2930   -1.0060 C   0  0  0  0  0  2  0  0  0  0  0  0
    4.6760   -5.9180   -2.3150 C   0  0  0  0  0  2  0  0  0  0  0  0
    9.6840   -8.4780   -7.5550 C   0  0  0  0  0  1  0  0  0  0  0  0
    9.7290   -7.7110   -6.3580 O   0  0  0  0  0  0  0  0  0  0  0  0
  1  2  1  0  0  0  0
  2  3  2  0  0  0  0
  4 11  1  0  0  0  0
  4  3  1  0  0  0  0
  5  4  2  0  0  0  0
  6  5  1  0  0  0  0
  6  1  2  0  0  0  0
  7  5  1  0  0  0  0
  8  7  2  0  0  0  0
  9  8  1  0  0  0  0
  9 10  1  0  0  0  0
 10 18  1  0  0  0  0
 10 11  1  0  0  0  0
 11 12  2  0  0  0  0
 12 36  1  0  0  0  0
 13 12  1  0  0  0  0
 13 14  1  0  0  0  0
 15 14  2  0  0  0  0
 16 15  1  0  0  0  0
 17 18  1  0  0  0  0
 17 16  2  0  0  0  0
 18 13  2  0  0  0  0
 19 16  1  0  0  0  0
 20 19  2  0  0  0  0
 21 19  1  0  0  0  0
 21 22  1  0  0  0  0
 22 25  1  0  0  0  0
 22 23  2  0  0  0  0
 24 22  2  0  0  0  0
 25 26  1  0  0  0  0
 27 28  1  0  0  0  0
 27 25  1  0  0  0  0
 29 28  1  0  0  0  0
 30 29  1  0  0  0  0
 30 31  1  0  0  0  0
 31 32  1  0  0  0  0
 33 31  1  0  0  0  0
 33  8  1  0  0  0  0
 34 33  2  0  0  0  0
 35 21  1  0  0  0  0
 36 41  1  0  0  0  0
 36 37  1  0  0  0  0
 37 38  1  0  0  0  0
 38 39  1  0  0  0  0
 40 39  1  0  0  0  0
 41 40  1  0  0  0  0
 42 43  1  0  0  0  0
 43  1  1  0  0  0  0
M  END
>  <minimizedAffinity>
-4.74109364

$$$$
