
 OpenBabel09092210413D

 43 48  0  0  0  0  0  0  0  0999 V2000
    8.4050   -6.8890   -5.9990 C   0  0  0  0  0  0  0  0  0  0  0  0
    8.2770   -5.7370   -5.2340 C   0  0  0  0  0  3  0  0  0  0  0  0
    7.0640   -5.0390   -5.2160 C   0  0  0  0  0  3  0  0  0  0  0  0
    5.9470   -5.4810   -5.9460 C   0  0  0  0  0  0  0  0  0  0  0  0
    6.0980   -6.6180   -6.7770 C   0  0  0  0  0  0  0  0  0  0  0  0
    7.3190   -7.3180   -6.7660 C   0  0  0  0  0  3  0  0  0  0  0  0
    5.0550   -7.1430   -7.6840 C   0  0  0  0  0  3  0  0  0  0  0  0
    4.1940   -6.3530   -8.3500 C   0  0  0  0  0  0  0  0  0  0  0  0
    4.2810   -4.8510   -8.3090 C   0  0  0  0  0  2  0  0  0  0  0  0
    3.9490   -4.3760   -6.9720 N   0  0  0  0  0  0  0  0  0  0  0  0
    4.6880   -4.6990   -5.8510 C   0  0  0  0  0  0  0  0  0  0  0  0
    3.9850   -4.2010   -4.7430 C   0  0  0  0  0  0  0  0  0  0  0  0
    2.8860   -3.4160   -5.2630 C   0  0  0  0  0  0  0  0  0  0  0  0
    1.8830   -2.5840   -4.7020 C   0  0  0  0  0  3  0  0  0  0  0  0
    0.8890   -2.0080   -5.5050 C   0  0  0  0  0  3  0  0  0  0  0  0
    0.8500   -2.2930   -6.8630 C   0  0  0  0  0  0  0  0  0  0  0  0
    1.8400   -3.0760   -7.4640 C   0  0  0  0  0  3  0  0  0  0  0  0
    2.8570   -3.6060   -6.6490 C   0  0  0  0  0  0  0  0  0  0  0  0
   -0.2300   -1.7380   -7.6990 C   0  0  0  0  0  0  0  0  0  0  0  0
   -0.4120   -0.5350   -7.7970 O   0  0  0  0  0  0  0  0  0  0  0  0
   -0.9570   -2.6560   -8.4840 N   0  0  0  0  0  0  0  0  0  0  0  0
   -1.9700   -3.7820   -7.7750 S   0  0  0  0  0  0  0  0  0  0  0  0
   -2.4380   -3.2380   -6.5230 O   0  0  0  0  0  0  0  0  0  0  0  0
   -2.8970   -4.1650   -8.8150 O   0  0  0  0  0  0  0  0  0  0  0  0
   -0.9640   -5.0670   -7.4740 N   0  0  0  0  0  0  0  0  0  0  0  0
   -0.4630   -5.3260   -6.1210 C   0  0  0  0  0  1  0  0  0  0  0  0
   -0.4270   -5.8910   -8.5720 C   0  0  0  0  0  2  0  0  0  0  0  0
   -0.6880   -7.3700   -8.2820 C   0  0  0  0  0  2  0  0  0  0  0  0
   -0.2110   -8.3630   -9.3440 C   0  0  0  0  0  2  0  0  0  0  0  0
    1.2190   -8.2070   -9.8760 C   0  0  0  0  0  2  0  0  0  0  0  0
    2.2520   -7.8320   -8.9030 N   0  0  0  0  0  0  0  0  0  0  0  0
    2.3810   -8.6450   -7.6990 C   0  0  0  0  0  1  0  0  0  0  0  0
    3.1670   -6.8610   -9.3020 C   0  0  0  0  0  0  0  0  0  0  0  0
    3.1060   -6.3090  -10.4020 O   0  0  0  0  0  0  0  0  0  0  0  0
   -1.5540   -2.1360   -9.1270 H   0  0  0  0  0  0  0  0  0  0  0  0
    4.3290   -4.5220   -3.2930 C   0  0  0  0  0  3  0  0  0  0  0  0
    4.5780   -3.3280   -2.3660 C   0  0  0  0  0  2  0  0  0  0  0  0
    5.0180   -3.7910   -0.9760 C   0  0  0  0  0  2  0  0  0  0  0  0
    3.9820   -4.7230   -0.3530 C   0  0  0  0  0  2  0  0  0  0  0  0
    3.6550   -5.8990   -1.2690 C   0  0  0  0  0  2  0  0  0  0  0  0
    3.2570   -5.4420   -2.6720 C   0  0  0  0  0  2  0  0  0  0  0  0
    9.6710   -8.4260   -7.2970 C   0  0  0  0  0  1  0  0  0  0  0  0
    9.5230   -7.6680   -6.1020 O   0  0  0  0  0  0  0  0  0  0  0  0
  1  2  1  0  0  0  0
  2  3  2  0  0  0  0
  4 11  1  0  0  0  0
  4  3  1  0  0  0  0
  5  6  1  0  0  0  0
  5  4  2  0  0  0  0
  6  1  2  0  0  0  0
  7  5  1  0  0  0  0
  8  9  1  0  0  0  0
  8  7  2  0  0  0  0
  9 10  1  0  0  0  0
 10 18  1  0  0  0  0
 10 11  1  0  0  0  0
 11 12  2  0  0  0  0
 12 36  1  0  0  0  0
 13 12  1  0  0  0  0
 13 14  1  0  0  0  0
 15 14  2  0  0  0  0
 16 15  1  0  0  0  0
 17 16  2  0  0  0  0
 17 18  1  0  0  0  0
 18 13  2  0  0  0  0
 19 16  1  0  0  0  0
 20 19  2  0  0  0  0
 21 22  1  0  0  0  0
 21 19  1  0  0  0  0
 22 25  1  0  0  0  0
 22 23  2  0  0  0  0
 24 22  2  0  0  0  0
 25 26  1  0  0  0  0
 27 28  1  0  0  0  0
 27 25  1  0  0  0  0
 29 28  1  0  0  0  0
 30 29  1  0  0  0  0
 30 31  1  0  0  0  0
 31 32  1  0  0  0  0
 33 31  1  0  0  0  0
 33  8  1  0  0  0  0
 34 33  2  0  0  0  0
 35 21  1  0  0  0  0
 36 41  1  0  0  0  0
 36 37  1  0  0  0  0
 37 38  1  0  0  0  0
 38 39  1  0  0  0  0
 40 39  1  0  0  0  0
 41 40  1  0  0  0  0
 42 43  1  0  0  0  0
 43  1  1  0  0  0  0
M  END
>  <minimizedAffinity>
-4.6086216

$$$$
