
 OpenBabel09122222393D

 55 58  0  0  1  0  0  0  0  0999 V2000
    2.2450   -5.9330    8.0100 C   0  0  1  0  0  3  0  0  0  0  0  0
    1.4280   -5.6420    7.0210 N   0  0  0  0  0  0  0  0  0  0  0  0
    0.5740   -6.7530    6.2410 S   0  0  0  0  0  0  0  0  0  0  0  0
   -0.5770   -7.1950    6.9980 O   0  0  0  0  0  0  0  0  0  0  0  0
    0.4200   -6.3350    4.8600 O   0  0  0  0  0  0  0  0  0  0  0  0
    1.7290   -8.0930    6.2300 C   0  0  0  0  0  0  0  0  0  0  0  0
    2.1040   -8.6950    5.0310 C   0  0  0  0  0  3  0  0  0  0  0  0
    3.2320   -9.5070    5.0330 C   0  0  0  0  0  0  0  0  0  0  0  0
    3.8580   -9.8440    6.2380 C   0  0  0  0  0  3  0  0  0  0  0  0
    3.4600   -9.2420    7.4370 C   0  0  0  0  0  3  0  0  0  0  0  0
    2.4450   -8.2870    7.4180 C   0  0  0  0  0  0  0  0  0  0  0  0
    2.3740   -7.2940    8.4170 N   0  0  0  0  0  0  0  0  0  0  0  0
    1.4550   -4.7090    6.6230 H   0  0  0  0  0  0  0  0  0  0  0  0
    2.9090   -7.4440    9.2730 H   0  0  0  0  0  0  0  0  0  0  0  0
    3.4930   -2.5050    8.2590 N   0  0  0  0  0  0  0  0  0  0  0  0
    2.6810   -3.5450    8.6410 C   0  0  0  0  0  0  0  0  0  0  0  0
    1.4790   -3.4330    8.8950 O   0  0  0  0  0  0  0  0  0  0  0  0
    3.2510   -4.9240    8.4780 C   0  0  0  0  0  0  0  0  0  0  0  0
    4.5860   -5.0540    8.3820 C   0  0  0  0  0  0  0  0  0  0  0  0
    5.4630   -3.8800    8.5290 C   0  0  0  0  0  0  0  0  0  0  0  0
    6.8440   -3.9460    8.7410 C   0  0  0  0  0  3  0  0  0  0  0  0
    7.6090   -2.7820    8.6840 C   0  0  0  0  0  3  0  0  0  0  0  0
    6.9690   -1.5890    8.4090 C   0  0  0  0  0  3  0  0  0  0  0  0
    5.6350   -1.4860    8.2400 N   0  0  0  0  0  0  0  0  0  0  0  0
    4.9000   -2.6140    8.3320 C   0  0  0  0  0  0  0  0  0  0  0  0
    5.1540   -6.2610    8.0100 O   0  0  0  0  0  0  0  0  0  0  0  0
    6.1060   -6.1390    7.8380 H   0  0  0  0  0  0  0  0  0  0  0  0
    2.9060   -1.2990    7.6430 C   0  0  0  0  0  2  0  0  0  0  0  0
    1.8280   -1.8090    6.3240 C   0  0  0  0  0  1  0  0  0  0  0  0
    1.6680   -1.2680    2.7830 C   0  0  0  0  0  1  0  0  0  0  0  0
    1.1970   -0.9020    4.4210 C   0  0  0  0  0  2  0  0  0  0  0  0
   -0.4220   -0.4600    3.8730 C   0  0  0  0  0  1  0  0  0  0  0  0
    3.8650   -9.7780    3.7850 N   0  0  0  0  0  0  0  0  0  0  0  0
    4.1260  -10.7460    3.5980 H   0  0  0  0  0  0  0  0  0  0  0  0
    3.1770   -9.0710    2.4060 S   0  0  0  0  0  0  0  0  0  0  0  0
    2.0140   -9.8460    2.0410 O   0  0  0  0  0  0  0  0  0  0  0  0
    3.1020   -7.6570    2.6790 O   0  0  0  0  0  0  0  0  0  0  0  0
    4.4350   -9.2700    1.2790 N   0  0  0  0  0  0  0  0  0  0  0  0
    5.0320  -10.0230    1.6260 H   0  0  0  0  0  0  0  0  0  0  0  0
    5.2310   -8.1130    0.9450 C   0  0  0  0  0  0  0  0  0  0  0  0
    5.5210   -7.7450   -0.7940 C   0  0  0  0  0  3  0  0  0  0  0  0
    6.3980   -6.2270   -1.2630 C   0  0  0  0  0  3  0  0  0  0  0  0
    6.8150   -4.9950   -0.0020 C   0  0  0  0  0  3  0  0  0  0  0  0
    6.4770   -5.3380    1.7310 C   0  0  0  0  0  0  0  0  0  0  0  0
    5.6180   -6.8670    2.1710 C   0  0  0  0  0  3  0  0  0  0  0  0
    6.8170   -4.2540    2.6800 C   0  0  0  0  0  0  0  0  0  0  0  0
    8.0140   -4.0510    2.8920 O   0  0  0  0  0  0  0  0  0  0  0  0
    5.9180   -3.4700    3.3450 N   0  0  0  0  0  0  0  0  0  0  0  0
    6.3970   -2.8900    4.0250 H   0  0  0  0  0  0  0  0  0  0  0  0
    4.4670   -3.3700    3.3940 C   0  0  0  0  0  2  0  0  0  0  0  0
    3.8450   -4.2880    4.4460 C   0  0  0  0  0  0  0  0  0  0  0  0
    4.6920   -5.1360    5.0990 N   0  0  0  0  0  0  0  0  0  0  0  0
    2.6420   -4.2990    4.6940 O   0  0  0  0  0  0  0  0  0  0  0  0
    4.2860   -5.7440    5.7990 H   0  0  0  0  0  0  0  0  0  0  0  0
    5.7060   -5.1180    5.0460 H   0  0  0  0  0  0  0  0  0  0  0  0
  1 12  1  0  0  0  0
  1 18  1  6  0  0  0
  2  1  1  0  0  0  0
  3  4  2  0  0  0  0
  3  2  1  0  0  0  0
  5  3  2  0  0  0  0
  6  3  1  0  0  0  0
  6 11  1  0  0  0  0
  7  8  1  0  0  0  0
  7  6  2  0  0  0  0
  8  9  2  0  0  0  0
  9 10  1  0  0  0  0
 11 10  2  0  0  0  0
 11 12  1  0  0  0  0
 12 14  1  0  0  0  0
 13  2  1  0  0  0  0
 15 25  1  0  0  0  0
 15 16  1  0  0  0  0
 16 17  2  0  0  0  0
 18 16  1  0  0  0  0
 19 18  2  0  0  0  0
 19 20  1  0  0  0  0
 20 21  1  0  0  0  0
 22 21  2  0  0  0  0
 23 22  1  0  0  0  0
 24 25  1  0  0  0  0
 24 23  2  0  0  0  0
 25 20  2  0  0  0  0
 26 19  1  0  0  0  0
 27 26  1  0  0  0  0
 28 15  1  0  0  0  0
 29 28  1  0  0  0  0
 30 31  1  0  0  0  0
 32 31  1  0  0  0  0
 33  8  1  0  0  0  0
 34 33  1  0  0  0  0
 35 37  2  0  0  0  0
 35 33  1  0  0  0  0
 36 35  2  0  0  0  0
 38 39  1  0  0  0  0
 38 35  1  0  0  0  0
 40 38  1  0  0  0  0
 40 45  1  0  0  0  0
 41 40  2  0  0  0  0
 42 41  1  0  0  0  0
 42 43  2  0  0  0  0
 43 44  1  0  0  0  0
 44 45  2  0  0  0  0
 44 46  1  0  0  0  0
 46 47  2  0  0  0  0
 46 48  1  0  0  0  0
 48 50  1  0  0  0  0
 48 49  1  0  0  0  0
 50 51  1  0  0  0  0
 51 53  2  0  0  0  0
 51 52  1  0  0  0  0
 52 54  1  0  0  0  0
 55 52  1  0  0  0  0
M  END
>  <minimizedAffinity>
-4.36431265

$$$$
