
 OpenBabel09122220143D

 55 58  0  0  1  0  0  0  0  0999 V2000
    3.9050   -9.6040    2.6850 C   0  0  1  0  0  3  0  0  0  0  0  0
    3.1760   -9.1570    1.6850 N   0  0  0  0  0  0  0  0  0  0  0  0
    3.8050   -8.7100    0.2790 S   0  0  0  0  0  0  0  0  0  0  0  0
    4.1610   -9.8410   -0.5490 O   0  0  0  0  0  0  0  0  0  0  0  0
    3.0020   -7.6320   -0.2670 O   0  0  0  0  0  0  0  0  0  0  0  0
    5.3190   -7.9760    0.8260 C   0  0  0  0  0  0  0  0  0  0  0  0
    5.6390   -6.6680    0.4730 C   0  0  0  0  0  3  0  0  0  0  0  0
    6.6570   -6.0320    1.1750 C   0  0  0  0  0  0  0  0  0  0  0  0
    7.4450   -6.7500    2.0820 C   0  0  0  0  0  3  0  0  0  0  0  0
    7.1190   -8.0700    2.4160 C   0  0  0  0  0  3  0  0  0  0  0  0
    5.9880   -8.6580    1.8500 C   0  0  0  0  0  0  0  0  0  0  0  0
    5.3180   -9.7070    2.5120 N   0  0  0  0  0  0  0  0  0  0  0  0
    2.2010   -8.9290    1.8550 H   0  0  0  0  0  0  0  0  0  0  0  0
    5.8140  -10.1880    3.2630 H   0  0  0  0  0  0  0  0  0  0  0  0
    1.4500   -8.6280    5.2120 N   0  0  0  0  0  0  0  0  0  0  0  0
    1.8620   -9.3470    4.1160 C   0  0  0  0  0  0  0  0  0  0  0  0
    1.1780   -9.5290    3.1050 O   0  0  0  0  0  0  0  0  0  0  0  0
    3.3210   -9.6930    4.0630 C   0  0  0  0  0  0  0  0  0  0  0  0
    4.0240   -9.6670    5.2090 C   0  0  0  0  0  0  0  0  0  0  0  0
    3.3520   -9.3960    6.4910 C   0  0  0  0  0  0  0  0  0  0  0  0
    3.9190   -9.6340    7.7480 C   0  0  0  0  0  3  0  0  0  0  0  0
    3.2750   -9.1750    8.8950 C   0  0  0  0  0  3  0  0  0  0  0  0
    2.0870   -8.4840    8.7500 C   0  0  0  0  0  3  0  0  0  0  0  0
    1.4960   -8.2740    7.5570 N   0  0  0  0  0  0  0  0  0  0  0  0
    2.1100   -8.7520    6.4560 C   0  0  0  0  0  0  0  0  0  0  0  0
    5.4060   -9.7570    5.1930 O   0  0  0  0  0  0  0  0  0  0  0  0
    5.7600   -9.5650    6.0810 H   0  0  0  0  0  0  0  0  0  0  0  0
    0.3860   -7.6150    5.0730 C   0  0  0  0  0  2  0  0  0  0  0  0
   -1.1840   -8.4050    5.3500 C   0  0  0  0  0  1  0  0  0  0  0  0
   -3.3360   -8.3330    8.2160 C   0  0  0  0  0  1  0  0  0  0  0  0
   -2.9510   -7.9200    6.5660 C   0  0  0  0  0  2  0  0  0  0  0  0
   -3.8100   -6.3860    6.7340 C   0  0  0  0  0  1  0  0  0  0  0  0
    6.7150   -4.6090    1.1300 N   0  0  0  0  0  0  0  0  0  0  0  0
    5.8790   -4.1200    0.8110 H   0  0  0  0  0  0  0  0  0  0  0  0
    7.3840   -3.8260    2.4770 S   0  0  0  0  0  0  0  0  0  0  0  0
    8.1750   -4.7920    3.2060 O   0  0  0  0  0  0  0  0  0  0  0  0
    7.9440   -2.5920    1.9840 O   0  0  0  0  0  0  0  0  0  0  0  0
    5.9780   -3.4000    3.3340 N   0  0  0  0  0  0  0  0  0  0  0  0
    5.7360   -2.4460    3.0580 H   0  0  0  0  0  0  0  0  0  0  0  0
    6.0050   -3.5120    4.7730 C   0  0  0  0  0  0  0  0  0  0  0  0
    7.4450   -2.8880    5.6550 C   0  0  0  0  0  3  0  0  0  0  0  0
    7.4620   -2.8830    7.4710 C   0  0  0  0  0  3  0  0  0  0  0  0
    5.9670   -3.3270    8.3910 C   0  0  0  0  0  3  0  0  0  0  0  0
    4.5090   -3.9010    7.5070 C   0  0  0  0  0  0  0  0  0  0  0  0
    4.5260   -3.9120    5.7000 C   0  0  0  0  0  3  0  0  0  0  0  0
    3.3250   -4.2020    8.3460 C   0  0  0  0  0  0  0  0  0  0  0  0
    3.0780   -5.3900    8.5590 O   0  0  0  0  0  0  0  0  0  0  0  0
    2.4830   -3.2760    8.8910 N   0  0  0  0  0  0  0  0  0  0  0  0
    1.6850   -3.7370    9.3130 H   0  0  0  0  0  0  0  0  0  0  0  0
    2.4000   -1.8240    8.8930 C   0  0  0  0  0  2  0  0  0  0  0  0
    2.8060   -1.2050    7.5550 C   0  0  0  0  0  0  0  0  0  0  0  0
    3.9460   -0.4560    7.5450 N   0  0  0  0  0  0  0  0  0  0  0  0
    2.1440   -1.3420    6.5290 O   0  0  0  0  0  0  0  0  0  0  0  0
    4.2230   -0.0480    6.6600 H   0  0  0  0  0  0  0  0  0  0  0  0
    4.6150   -0.3840    8.3070 H   0  0  0  0  0  0  0  0  0  0  0  0
  1 18  1  1  0  0  0
  2 13  1  0  0  0  0
  2  1  1  0  0  0  0
  3  6  1  0  0  0  0
  3  2  1  0  0  0  0
  4  3  2  0  0  0  0
  5  3  2  0  0  0  0
  6 11  1  0  0  0  0
  7  6  2  0  0  0  0
  7  8  1  0  0  0  0
  8  9  2  0  0  0  0
  9 10  1  0  0  0  0
 11 10  2  0  0  0  0
 11 12  1  0  0  0  0
 12  1  1  0  0  0  0
 12 14  1  0  0  0  0
 15 25  1  0  0  0  0
 16 15  1  0  0  0  0
 17 16  2  0  0  0  0
 18 16  1  0  0  0  0
 18 19  2  0  0  0  0
 19 20  1  0  0  0  0
 20 21  1  0  0  0  0
 21 22  2  0  0  0  0
 23 22  1  0  0  0  0
 24 23  2  0  0  0  0
 25 20  2  0  0  0  0
 25 24  1  0  0  0  0
 26 19  1  0  0  0  0
 26 27  1  0  0  0  0
 28 15  1  0  0  0  0
 28 29  1  0  0  0  0
 31 32  1  0  0  0  0
 31 30  1  0  0  0  0
 33  8  1  0  0  0  0
 33 35  1  0  0  0  0
 34 33  1  0  0  0  0
 35 36  2  0  0  0  0
 35 38  1  0  0  0  0
 37 35  2  0  0  0  0
 38 40  1  0  0  0  0
 39 38  1  0  0  0  0
 40 41  2  0  0  0  0
 40 45  1  0  0  0  0
 41 42  1  0  0  0  0
 42 43  2  0  0  0  0
 44 46  1  0  0  0  0
 44 43  1  0  0  0  0
 45 44  2  0  0  0  0
 46 47  2  0  0  0  0
 46 48  1  0  0  0  0
 48 50  1  0  0  0  0
 48 49  1  0  0  0  0
 51 50  1  0  0  0  0
 52 51  1  0  0  0  0
 52 55  1  0  0  0  0
 53 51  2  0  0  0  0
 54 52  1  0  0  0  0
M  END
>  <minimizedAffinity>
-5.03528023

$$$$

 OpenBabel09122220143D

 55 58  0  0  1  0  0  0  0  0999 V2000
    2.2450   -5.9330    8.0100 C   0  0  1  0  0  3  0  0  0  0  0  0
    1.4280   -5.6420    7.0210 N   0  0  0  0  0  0  0  0  0  0  0  0
    0.5740   -6.7530    6.2410 S   0  0  0  0  0  0  0  0  0  0  0  0
   -0.5770   -7.1950    6.9980 O   0  0  0  0  0  0  0  0  0  0  0  0
    0.4200   -6.3350    4.8600 O   0  0  0  0  0  0  0  0  0  0  0  0
    1.7290   -8.0930    6.2300 C   0  0  0  0  0  0  0  0  0  0  0  0
    2.1040   -8.6950    5.0310 C   0  0  0  0  0  3  0  0  0  0  0  0
    3.2320   -9.5070    5.0330 C   0  0  0  0  0  0  0  0  0  0  0  0
    3.8580   -9.8440    6.2380 C   0  0  0  0  0  3  0  0  0  0  0  0
    3.4600   -9.2420    7.4370 C   0  0  0  0  0  3  0  0  0  0  0  0
    2.4450   -8.2870    7.4180 C   0  0  0  0  0  0  0  0  0  0  0  0
    2.3740   -7.2940    8.4170 N   0  0  0  0  0  0  0  0  0  0  0  0
    1.4550   -4.7090    6.6230 H   0  0  0  0  0  0  0  0  0  0  0  0
    2.9090   -7.4440    9.2730 H   0  0  0  0  0  0  0  0  0  0  0  0
    3.4930   -2.5050    8.2590 N   0  0  0  0  0  0  0  0  0  0  0  0
    2.6810   -3.5450    8.6410 C   0  0  0  0  0  0  0  0  0  0  0  0
    1.4790   -3.4330    8.8950 O   0  0  0  0  0  0  0  0  0  0  0  0
    3.2510   -4.9240    8.4780 C   0  0  0  0  0  0  0  0  0  0  0  0
    4.5860   -5.0540    8.3820 C   0  0  0  0  0  0  0  0  0  0  0  0
    5.4630   -3.8800    8.5290 C   0  0  0  0  0  0  0  0  0  0  0  0
    6.8440   -3.9460    8.7410 C   0  0  0  0  0  3  0  0  0  0  0  0
    7.6090   -2.7820    8.6840 C   0  0  0  0  0  3  0  0  0  0  0  0
    6.9690   -1.5890    8.4090 C   0  0  0  0  0  3  0  0  0  0  0  0
    5.6350   -1.4860    8.2400 N   0  0  0  0  0  0  0  0  0  0  0  0
    4.9000   -2.6140    8.3320 C   0  0  0  0  0  0  0  0  0  0  0  0
    5.1540   -6.2610    8.0100 O   0  0  0  0  0  0  0  0  0  0  0  0
    6.1060   -6.1390    7.8380 H   0  0  0  0  0  0  0  0  0  0  0  0
    2.9060   -1.2990    7.6430 C   0  0  0  0  0  2  0  0  0  0  0  0
    1.8280   -1.8090    6.3240 C   0  0  0  0  0  1  0  0  0  0  0  0
    1.6680   -1.2680    2.7830 C   0  0  0  0  0  1  0  0  0  0  0  0
    1.1970   -0.9020    4.4210 C   0  0  0  0  0  2  0  0  0  0  0  0
   -0.4220   -0.4600    3.8730 C   0  0  0  0  0  1  0  0  0  0  0  0
    3.8650   -9.7780    3.7850 N   0  0  0  0  0  0  0  0  0  0  0  0
    4.1260  -10.7460    3.5980 H   0  0  0  0  0  0  0  0  0  0  0  0
    3.1770   -9.0710    2.4060 S   0  0  0  0  0  0  0  0  0  0  0  0
    2.0140   -9.8460    2.0410 O   0  0  0  0  0  0  0  0  0  0  0  0
    3.1020   -7.6570    2.6790 O   0  0  0  0  0  0  0  0  0  0  0  0
    4.4350   -9.2700    1.2790 N   0  0  0  0  0  0  0  0  0  0  0  0
    5.0320  -10.0230    1.6260 H   0  0  0  0  0  0  0  0  0  0  0  0
    5.2310   -8.1130    0.9450 C   0  0  0  0  0  0  0  0  0  0  0  0
    5.5210   -7.7450   -0.7940 C   0  0  0  0  0  3  0  0  0  0  0  0
    6.3980   -6.2270   -1.2630 C   0  0  0  0  0  3  0  0  0  0  0  0
    6.8150   -4.9950   -0.0020 C   0  0  0  0  0  3  0  0  0  0  0  0
    6.4770   -5.3380    1.7310 C   0  0  0  0  0  0  0  0  0  0  0  0
    5.6180   -6.8670    2.1710 C   0  0  0  0  0  3  0  0  0  0  0  0
    6.8170   -4.2540    2.6800 C   0  0  0  0  0  0  0  0  0  0  0  0
    8.0140   -4.0510    2.8920 O   0  0  0  0  0  0  0  0  0  0  0  0
    5.9180   -3.4700    3.3450 N   0  0  0  0  0  0  0  0  0  0  0  0
    6.3970   -2.8900    4.0250 H   0  0  0  0  0  0  0  0  0  0  0  0
    4.4670   -3.3700    3.3940 C   0  0  0  0  0  2  0  0  0  0  0  0
    3.8450   -4.2880    4.4460 C   0  0  0  0  0  0  0  0  0  0  0  0
    4.6920   -5.1360    5.0990 N   0  0  0  0  0  0  0  0  0  0  0  0
    2.6420   -4.2990    4.6940 O   0  0  0  0  0  0  0  0  0  0  0  0
    4.2860   -5.7440    5.7990 H   0  0  0  0  0  0  0  0  0  0  0  0
    5.7060   -5.1180    5.0460 H   0  0  0  0  0  0  0  0  0  0  0  0
  1 12  1  0  0  0  0
  1 18  1  6  0  0  0
  2  1  1  0  0  0  0
  3  4  2  0  0  0  0
  3  2  1  0  0  0  0
  5  3  2  0  0  0  0
  6  3  1  0  0  0  0
  6 11  1  0  0  0  0
  7  8  1  0  0  0  0
  7  6  2  0  0  0  0
  8  9  2  0  0  0  0
  9 10  1  0  0  0  0
 11 10  2  0  0  0  0
 11 12  1  0  0  0  0
 12 14  1  0  0  0  0
 13  2  1  0  0  0  0
 15 25  1  0  0  0  0
 15 16  1  0  0  0  0
 16 17  2  0  0  0  0
 18 16  1  0  0  0  0
 19 18  2  0  0  0  0
 19 20  1  0  0  0  0
 20 21  1  0  0  0  0
 22 21  2  0  0  0  0
 23 22  1  0  0  0  0
 24 25  1  0  0  0  0
 24 23  2  0  0  0  0
 25 20  2  0  0  0  0
 26 19  1  0  0  0  0
 27 26  1  0  0  0  0
 28 15  1  0  0  0  0
 29 28  1  0  0  0  0
 30 31  1  0  0  0  0
 32 31  1  0  0  0  0
 33  8  1  0  0  0  0
 34 33  1  0  0  0  0
 35 37  2  0  0  0  0
 35 33  1  0  0  0  0
 36 35  2  0  0  0  0
 38 39  1  0  0  0  0
 38 35  1  0  0  0  0
 40 38  1  0  0  0  0
 40 45  1  0  0  0  0
 41 40  2  0  0  0  0
 42 41  1  0  0  0  0
 42 43  2  0  0  0  0
 43 44  1  0  0  0  0
 44 45  2  0  0  0  0
 44 46  1  0  0  0  0
 46 47  2  0  0  0  0
 46 48  1  0  0  0  0
 48 50  1  0  0  0  0
 48 49  1  0  0  0  0
 50 51  1  0  0  0  0
 51 53  2  0  0  0  0
 51 52  1  0  0  0  0
 52 54  1  0  0  0  0
 55 52  1  0  0  0  0
M  END
>  <minimizedAffinity>
-4.36431265

$$$$

 OpenBabel09122220143D

 55 58  0  0  1  0  0  0  0  0999 V2000
    3.0080   -8.8220    3.5000 C   0  0  1  0  0  3  0  0  0  0  0  0
    2.3180   -8.3180    2.5000 N   0  0  0  0  0  0  0  0  0  0  0  0
    2.7310   -8.5280    0.9640 S   0  0  0  0  0  0  0  0  0  0  0  0
    2.3840   -9.8450    0.4760 O   0  0  0  0  0  0  0  0  0  0  0  0
    2.3410   -7.3490    0.2130 O   0  0  0  0  0  0  0  0  0  0  0  0
    4.4940   -8.4750    1.0970 C   0  0  0  0  0  0  0  0  0  0  0  0
    5.2340   -7.5730    0.3370 C   0  0  0  0  0  3  0  0  0  0  0  0
    6.5560   -7.3430    0.7000 C   0  0  0  0  0  0  0  0  0  0  0  0
    7.1640   -8.1270    1.6870 C   0  0  0  0  0  3  0  0  0  0  0  0
    6.4090   -9.0400    2.4330 C   0  0  0  0  0  3  0  0  0  0  0  0
    5.0400   -9.1480    2.1970 C   0  0  0  0  0  0  0  0  0  0  0  0
    4.1700   -9.5980    3.2110 N   0  0  0  0  0  0  0  0  0  0  0  0
    1.5940   -7.6360    2.7000 H   0  0  0  0  0  0  0  0  0  0  0  0
    4.5830  -10.0780    4.0120 H   0  0  0  0  0  0  0  0  0  0  0  0
    0.8160   -7.6510    6.1820 N   0  0  0  0  0  0  0  0  0  0  0  0
    1.4010   -8.6290    5.4150 C   0  0  0  0  0  0  0  0  0  0  0  0
    0.8030   -9.6090    4.9620 O   0  0  0  0  0  0  0  0  0  0  0  0
    2.7770   -8.3300    4.8980 C   0  0  0  0  0  0  0  0  0  0  0  0
    3.4970   -7.3790    5.5170 C   0  0  0  0  0  0  0  0  0  0  0  0
    2.9790   -6.7180    6.7260 C   0  0  0  0  0  0  0  0  0  0  0  0
    3.7530   -5.9470    7.6000 C   0  0  0  0  0  3  0  0  0  0  0  0
    3.1320   -5.2170    8.6130 C   0  0  0  0  0  3  0  0  0  0  0  0
    1.7550   -5.2730    8.7140 C   0  0  0  0  0  3  0  0  0  0  0  0
    0.9860   -6.0380    7.9130 N   0  0  0  0  0  0  0  0  0  0  0  0
    1.6000   -6.7680    6.9590 C   0  0  0  0  0  0  0  0  0  0  0  0
    4.6730   -6.9040    4.9570 O   0  0  0  0  0  0  0  0  0  0  0  0
    4.9790   -6.1190    5.4460 H   0  0  0  0  0  0  0  0  0  0  0  0
   -0.6400   -7.4230    6.1040 C   0  0  0  0  0  2  0  0  0  0  0  0
   -1.4220   -8.3260    7.4220 C   0  0  0  0  0  1  0  0  0  0  0  0
   -4.8140   -7.8370    8.4760 C   0  0  0  0  0  1  0  0  0  0  0  0
   -3.5060   -8.8380    7.9040 C   0  0  0  0  0  2  0  0  0  0  0  0
   -4.6480   -9.8450    7.0090 C   0  0  0  0  0  1  0  0  0  0  0  0
    7.1840   -6.1540    0.2280 N   0  0  0  0  0  0  0  0  0  0  0  0
    6.8210   -5.7490   -0.6340 H   0  0  0  0  0  0  0  0  0  0  0  0
    7.4920   -4.9420    1.3720 S   0  0  0  0  0  0  0  0  0  0  0  0
    8.0470   -5.5720    2.5490 O   0  0  0  0  0  0  0  0  0  0  0  0
    8.1840   -3.8930    0.6650 O   0  0  0  0  0  0  0  0  0  0  0  0
    5.9190   -4.3630    1.6600 N   0  0  0  0  0  0  0  0  0  0  0  0
    5.7840   -3.5490    1.0570 H   0  0  0  0  0  0  0  0  0  0  0  0
    5.5570   -4.0430    3.0200 C   0  0  0  0  0  0  0  0  0  0  0  0
    6.8670   -3.6170    4.1790 C   0  0  0  0  0  3  0  0  0  0  0  0
    6.4480   -3.0740    5.8600 C   0  0  0  0  0  3  0  0  0  0  0  0
    4.7180   -2.7820    6.3120 C   0  0  0  0  0  3  0  0  0  0  0  0
    3.4100   -3.1570    5.1350 C   0  0  0  0  0  0  0  0  0  0  0  0
    3.8570   -3.7130    3.4740 C   0  0  0  0  0  3  0  0  0  0  0  0
    2.0330   -2.8470    5.5840 C   0  0  0  0  0  0  0  0  0  0  0  0
    1.1640   -3.6870    5.3450 O   0  0  0  0  0  0  0  0  0  0  0  0
    1.6460   -1.7070    6.2290 N   0  0  0  0  0  0  0  0  0  0  0  0
    0.6360   -1.6810    6.3150 H   0  0  0  0  0  0  0  0  0  0  0  0
    2.3140   -0.5000    6.6900 C   0  0  0  0  0  2  0  0  0  0  0  0
    3.1330   -0.7250    7.9620 C   0  0  0  0  0  0  0  0  0  0  0  0
    4.3580   -0.1280    8.0170 N   0  0  0  0  0  0  0  0  0  0  0  0
    2.7400   -1.4230    8.8930 O   0  0  0  0  0  0  0  0  0  0  0  0
    4.9030   -0.2700    8.8590 H   0  0  0  0  0  0  0  0  0  0  0  0
    4.7150    0.5550    7.3550 H   0  0  0  0  0  0  0  0  0  0  0  0
  1 18  1  1  0  0  0
  2 13  1  0  0  0  0
  2  1  1  0  0  0  0
  3  6  1  0  0  0  0
  3  2  1  0  0  0  0
  4  3  2  0  0  0  0
  5  3  2  0  0  0  0
  6 11  1  0  0  0  0
  7  8  1  0  0  0  0
  7  6  2  0  0  0  0
  8  9  2  0  0  0  0
  9 10  1  0  0  0  0
 11 10  2  0  0  0  0
 11 12  1  0  0  0  0
 12  1  1  0  0  0  0
 12 14  1  0  0  0  0
 15 25  1  0  0  0  0
 16 15  1  0  0  0  0
 17 16  2  0  0  0  0
 18 16  1  0  0  0  0
 18 19  2  0  0  0  0
 19 20  1  0  0  0  0
 20 25  2  0  0  0  0
 20 21  1  0  0  0  0
 21 22  2  0  0  0  0
 22 23  1  0  0  0  0
 24 23  2  0  0  0  0
 25 24  1  0  0  0  0
 26 27  1  0  0  0  0
 26 19  1  0  0  0  0
 28 15  1  0  0  0  0
 28 29  1  0  0  0  0
 31 30  1  0  0  0  0
 32 31  1  0  0  0  0
 33  8  1  0  0  0  0
 33 35  1  0  0  0  0
 34 33  1  0  0  0  0
 35 38  1  0  0  0  0
 35 36  2  0  0  0  0
 37 35  2  0  0  0  0
 38 40  1  0  0  0  0
 39 38  1  0  0  0  0
 40 45  2  0  0  0  0
 40 41  1  0  0  0  0
 41 42  2  0  0  0  0
 42 43  1  0  0  0  0
 44 46  1  0  0  0  0
 44 43  2  0  0  0  0
 45 44  1  0  0  0  0
 46 48  1  0  0  0  0
 47 46  2  0  0  0  0
 48 49  1  0  0  0  0
 48 50  1  0  0  0  0
 50 51  1  0  0  0  0
 51 52  1  0  0  0  0
 51 53  2  0  0  0  0
 52 54  1  0  0  0  0
 55 52  1  0  0  0  0
M  END
>  <minimizedAffinity>
-3.68619514

$$$$

 OpenBabel09122220143D

 55 58  0  0  1  0  0  0  0  0999 V2000
    1.9580   -5.8150    8.0560 C   0  0  1  0  0  3  0  0  0  0  0  0
    1.1610   -5.3870    7.1020 N   0  0  0  0  0  0  0  0  0  0  0  0
    0.1680   -6.3560    6.2960 S   0  0  0  0  0  0  0  0  0  0  0  0
   -1.0110   -6.6960    7.0620 O   0  0  0  0  0  0  0  0  0  0  0  0
    0.0360   -5.8610    4.9380 O   0  0  0  0  0  0  0  0  0  0  0  0
    1.1590   -7.8180    6.1990 C   0  0  0  0  0  0  0  0  0  0  0  0
    1.4380   -8.4040    4.9670 C   0  0  0  0  0  3  0  0  0  0  0  0
    2.4640   -9.3400    4.9050 C   0  0  0  0  0  0  0  0  0  0  0  0
    3.0700   -9.8010    6.0790 C   0  0  0  0  0  3  0  0  0  0  0  0
    2.7690   -9.2120    7.3120 C   0  0  0  0  0  3  0  0  0  0  0  0
    1.8710   -8.1470    7.3590 C   0  0  0  0  0  0  0  0  0  0  0  0
    1.9360   -7.1990    8.4010 N   0  0  0  0  0  0  0  0  0  0  0  0
    1.2880   -4.4460    6.7430 H   0  0  0  0  0  0  0  0  0  0  0  0
    2.4670   -7.4480    9.2360 H   0  0  0  0  0  0  0  0  0  0  0  0
    3.6690   -2.5930    8.3050 N   0  0  0  0  0  0  0  0  0  0  0  0
    2.7090   -3.5030    8.6750 C   0  0  0  0  0  0  0  0  0  0  0  0
    1.5290   -3.2200    8.8950 O   0  0  0  0  0  0  0  0  0  0  0  0
    3.0830   -4.9500    8.5410 C   0  0  0  0  0  0  0  0  0  0  0  0
    4.3890   -5.2680    8.4840 C   0  0  0  0  0  0  0  0  0  0  0  0
    5.4180   -4.2270    8.6430 C   0  0  0  0  0  0  0  0  0  0  0  0
    6.7710   -4.4830    8.8930 C   0  0  0  0  0  3  0  0  0  0  0  0
    7.6930   -3.4390    8.8460 C   0  0  0  0  0  3  0  0  0  0  0  0
    7.2350   -2.1720    8.5410 C   0  0  0  0  0  3  0  0  0  0  0  0
    5.9340   -1.8860    8.3350 N   0  0  0  0  0  0  0  0  0  0  0  0
    5.0450   -2.8970    8.4170 C   0  0  0  0  0  0  0  0  0  0  0  0
    4.7910   -6.5490    8.1390 O   0  0  0  0  0  0  0  0  0  0  0  0
    5.7540   -6.5640    7.9920 H   0  0  0  0  0  0  0  0  0  0  0  0
    3.2750   -1.3250    7.6610 C   0  0  0  0  0  2  0  0  0  0  0  0
    1.9300   -1.6560    6.5450 C   0  0  0  0  0  1  0  0  0  0  0  0
    1.0810   -1.0640    3.1120 C   0  0  0  0  0  1  0  0  0  0  0  0
    1.7890   -2.0270    4.3810 C   0  0  0  0  0  2  0  0  0  0  0  0
    3.0200   -2.6210    3.2630 C   0  0  0  0  0  1  0  0  0  0  0  0
    3.0360   -9.6260    3.6310 N   0  0  0  0  0  0  0  0  0  0  0  0
    2.3960   -9.9050    2.8880 H   0  0  0  0  0  0  0  0  0  0  0  0
    4.1880   -8.5300    3.0450 S   0  0  0  0  0  0  0  0  0  0  0  0
    5.4380   -8.7930    3.7220 O   0  0  0  0  0  0  0  0  0  0  0  0
    4.0740   -8.5630    1.6070 O   0  0  0  0  0  0  0  0  0  0  0  0
    3.5110   -7.0520    3.5410 N   0  0  0  0  0  0  0  0  0  0  0  0
    2.7110   -6.8690    2.9320 H   0  0  0  0  0  0  0  0  0  0  0  0
    4.3750   -5.8970    3.5910 C   0  0  0  0  0  0  0  0  0  0  0  0
    4.5420   -5.0190    5.1540 C   0  0  0  0  0  3  0  0  0  0  0  0
    5.7220   -3.6470    5.3010 C   0  0  0  0  0  3  0  0  0  0  0  0
    6.8610   -3.2830    3.9390 C   0  0  0  0  0  3  0  0  0  0  0  0
    6.7310   -4.1970    2.3950 C   0  0  0  0  0  0  0  0  0  0  0  0
    5.5340   -5.5460    2.2720 C   0  0  0  0  0  3  0  0  0  0  0  0
    7.7310   -3.8540    1.3590 C   0  0  0  0  0  0  0  0  0  0  0  0
    8.1830   -2.7070    1.3740 O   0  0  0  0  0  0  0  0  0  0  0  0
    8.1850   -4.6960    0.3840 N   0  0  0  0  0  0  0  0  0  0  0  0
    8.7680   -4.1870   -0.2720 H   0  0  0  0  0  0  0  0  0  0  0  0
    7.9310   -6.0780    0.0080 C   0  0  0  0  0  2  0  0  0  0  0  0
    6.5210   -6.2920   -0.5430 C   0  0  0  0  0  0  0  0  0  0  0  0
    6.0090   -7.5530   -0.4470 N   0  0  0  0  0  0  0  0  0  0  0  0
    5.8680   -5.3950   -1.0710 O   0  0  0  0  0  0  0  0  0  0  0  0
    5.0740   -7.6990   -0.8060 H   0  0  0  0  0  0  0  0  0  0  0  0
    6.4220   -8.3220    0.0730 H   0  0  0  0  0  0  0  0  0  0  0  0
  1 12  1  0  0  0  0
  1 18  1  6  0  0  0
  2  1  1  0  0  0  0
  3  4  2  0  0  0  0
  3  2  1  0  0  0  0
  5  3  2  0  0  0  0
  6  3  1  0  0  0  0
  6 11  1  0  0  0  0
  7  6  2  0  0  0  0
  8  7  1  0  0  0  0
  8  9  2  0  0  0  0
  9 10  1  0  0  0  0
 10 11  2  0  0  0  0
 11 12  1  0  0  0  0
 12 14  1  0  0  0  0
 13  2  1  0  0  0  0
 15 25  1  0  0  0  0
 15 16  1  0  0  0  0
 16 17  2  0  0  0  0
 18 16  1  0  0  0  0
 19 18  2  0  0  0  0
 19 20  1  0  0  0  0
 20 21  1  0  0  0  0
 22 21  2  0  0  0  0
 23 22  1  0  0  0  0
 24 25  1  0  0  0  0
 24 23  2  0  0  0  0
 25 20  2  0  0  0  0
 26 19  1  0  0  0  0
 27 26  1  0  0  0  0
 28 15  1  0  0  0  0
 29 28  1  0  0  0  0
 30 31  1  0  0  0  0
 32 31  1  0  0  0  0
 33  8  1  0  0  0  0
 34 33  1  0  0  0  0
 35 38  1  0  0  0  0
 35 33  1  0  0  0  0
 35 36  2  0  0  0  0
 37 35  2  0  0  0  0
 38 40  1  0  0  0  0
 39 38  1  0  0  0  0
 40 41  1  0  0  0  0
 41 42  2  0  0  0  0
 43 42  1  0  0  0  0
 44 43  2  0  0  0  0
 45 44  1  0  0  0  0
 45 40  2  0  0  0  0
 46 47  2  0  0  0  0
 46 44  1  0  0  0  0
 48 46  1  0  0  0  0
 49 48  1  0  0  0  0
 50 48  1  0  0  0  0
 51 52  1  0  0  0  0
 51 50  1  0  0  0  0
 52 55  1  0  0  0  0
 53 51  2  0  0  0  0
 54 52  1  0  0  0  0
M  END
>  <minimizedAffinity>
-3.4945848

$$$$
