
 OpenBabel09122222393D

 55 58  0  0  1  0  0  0  0  0999 V2000
    1.9580   -5.8150    8.0560 C   0  0  1  0  0  3  0  0  0  0  0  0
    1.1610   -5.3870    7.1020 N   0  0  0  0  0  0  0  0  0  0  0  0
    0.1680   -6.3560    6.2960 S   0  0  0  0  0  0  0  0  0  0  0  0
   -1.0110   -6.6960    7.0620 O   0  0  0  0  0  0  0  0  0  0  0  0
    0.0360   -5.8610    4.9380 O   0  0  0  0  0  0  0  0  0  0  0  0
    1.1590   -7.8180    6.1990 C   0  0  0  0  0  0  0  0  0  0  0  0
    1.4380   -8.4040    4.9670 C   0  0  0  0  0  3  0  0  0  0  0  0
    2.4640   -9.3400    4.9050 C   0  0  0  0  0  0  0  0  0  0  0  0
    3.0700   -9.8010    6.0790 C   0  0  0  0  0  3  0  0  0  0  0  0
    2.7690   -9.2120    7.3120 C   0  0  0  0  0  3  0  0  0  0  0  0
    1.8710   -8.1470    7.3590 C   0  0  0  0  0  0  0  0  0  0  0  0
    1.9360   -7.1990    8.4010 N   0  0  0  0  0  0  0  0  0  0  0  0
    1.2880   -4.4460    6.7430 H   0  0  0  0  0  0  0  0  0  0  0  0
    2.4670   -7.4480    9.2360 H   0  0  0  0  0  0  0  0  0  0  0  0
    3.6690   -2.5930    8.3050 N   0  0  0  0  0  0  0  0  0  0  0  0
    2.7090   -3.5030    8.6750 C   0  0  0  0  0  0  0  0  0  0  0  0
    1.5290   -3.2200    8.8950 O   0  0  0  0  0  0  0  0  0  0  0  0
    3.0830   -4.9500    8.5410 C   0  0  0  0  0  0  0  0  0  0  0  0
    4.3890   -5.2680    8.4840 C   0  0  0  0  0  0  0  0  0  0  0  0
    5.4180   -4.2270    8.6430 C   0  0  0  0  0  0  0  0  0  0  0  0
    6.7710   -4.4830    8.8930 C   0  0  0  0  0  3  0  0  0  0  0  0
    7.6930   -3.4390    8.8460 C   0  0  0  0  0  3  0  0  0  0  0  0
    7.2350   -2.1720    8.5410 C   0  0  0  0  0  3  0  0  0  0  0  0
    5.9340   -1.8860    8.3350 N   0  0  0  0  0  0  0  0  0  0  0  0
    5.0450   -2.8970    8.4170 C   0  0  0  0  0  0  0  0  0  0  0  0
    4.7910   -6.5490    8.1390 O   0  0  0  0  0  0  0  0  0  0  0  0
    5.7540   -6.5640    7.9920 H   0  0  0  0  0  0  0  0  0  0  0  0
    3.2750   -1.3250    7.6610 C   0  0  0  0  0  2  0  0  0  0  0  0
    1.9300   -1.6560    6.5450 C   0  0  0  0  0  1  0  0  0  0  0  0
    1.0810   -1.0640    3.1120 C   0  0  0  0  0  1  0  0  0  0  0  0
    1.7890   -2.0270    4.3810 C   0  0  0  0  0  2  0  0  0  0  0  0
    3.0200   -2.6210    3.2630 C   0  0  0  0  0  1  0  0  0  0  0  0
    3.0360   -9.6260    3.6310 N   0  0  0  0  0  0  0  0  0  0  0  0
    2.3960   -9.9050    2.8880 H   0  0  0  0  0  0  0  0  0  0  0  0
    4.1880   -8.5300    3.0450 S   0  0  0  0  0  0  0  0  0  0  0  0
    5.4380   -8.7930    3.7220 O   0  0  0  0  0  0  0  0  0  0  0  0
    4.0740   -8.5630    1.6070 O   0  0  0  0  0  0  0  0  0  0  0  0
    3.5110   -7.0520    3.5410 N   0  0  0  0  0  0  0  0  0  0  0  0
    2.7110   -6.8690    2.9320 H   0  0  0  0  0  0  0  0  0  0  0  0
    4.3750   -5.8970    3.5910 C   0  0  0  0  0  0  0  0  0  0  0  0
    4.5420   -5.0190    5.1540 C   0  0  0  0  0  3  0  0  0  0  0  0
    5.7220   -3.6470    5.3010 C   0  0  0  0  0  3  0  0  0  0  0  0
    6.8610   -3.2830    3.9390 C   0  0  0  0  0  3  0  0  0  0  0  0
    6.7310   -4.1970    2.3950 C   0  0  0  0  0  0  0  0  0  0  0  0
    5.5340   -5.5460    2.2720 C   0  0  0  0  0  3  0  0  0  0  0  0
    7.7310   -3.8540    1.3590 C   0  0  0  0  0  0  0  0  0  0  0  0
    8.1830   -2.7070    1.3740 O   0  0  0  0  0  0  0  0  0  0  0  0
    8.1850   -4.6960    0.3840 N   0  0  0  0  0  0  0  0  0  0  0  0
    8.7680   -4.1870   -0.2720 H   0  0  0  0  0  0  0  0  0  0  0  0
    7.9310   -6.0780    0.0080 C   0  0  0  0  0  2  0  0  0  0  0  0
    6.5210   -6.2920   -0.5430 C   0  0  0  0  0  0  0  0  0  0  0  0
    6.0090   -7.5530   -0.4470 N   0  0  0  0  0  0  0  0  0  0  0  0
    5.8680   -5.3950   -1.0710 O   0  0  0  0  0  0  0  0  0  0  0  0
    5.0740   -7.6990   -0.8060 H   0  0  0  0  0  0  0  0  0  0  0  0
    6.4220   -8.3220    0.0730 H   0  0  0  0  0  0  0  0  0  0  0  0
  1 12  1  0  0  0  0
  1 18  1  6  0  0  0
  2  1  1  0  0  0  0
  3  4  2  0  0  0  0
  3  2  1  0  0  0  0
  5  3  2  0  0  0  0
  6  3  1  0  0  0  0
  6 11  1  0  0  0  0
  7  6  2  0  0  0  0
  8  7  1  0  0  0  0
  8  9  2  0  0  0  0
  9 10  1  0  0  0  0
 10 11  2  0  0  0  0
 11 12  1  0  0  0  0
 12 14  1  0  0  0  0
 13  2  1  0  0  0  0
 15 25  1  0  0  0  0
 15 16  1  0  0  0  0
 16 17  2  0  0  0  0
 18 16  1  0  0  0  0
 19 18  2  0  0  0  0
 19 20  1  0  0  0  0
 20 21  1  0  0  0  0
 22 21  2  0  0  0  0
 23 22  1  0  0  0  0
 24 25  1  0  0  0  0
 24 23  2  0  0  0  0
 25 20  2  0  0  0  0
 26 19  1  0  0  0  0
 27 26  1  0  0  0  0
 28 15  1  0  0  0  0
 29 28  1  0  0  0  0
 30 31  1  0  0  0  0
 32 31  1  0  0  0  0
 33  8  1  0  0  0  0
 34 33  1  0  0  0  0
 35 38  1  0  0  0  0
 35 33  1  0  0  0  0
 35 36  2  0  0  0  0
 37 35  2  0  0  0  0
 38 40  1  0  0  0  0
 39 38  1  0  0  0  0
 40 41  1  0  0  0  0
 41 42  2  0  0  0  0
 43 42  1  0  0  0  0
 44 43  2  0  0  0  0
 45 44  1  0  0  0  0
 45 40  2  0  0  0  0
 46 47  2  0  0  0  0
 46 44  1  0  0  0  0
 48 46  1  0  0  0  0
 49 48  1  0  0  0  0
 50 48  1  0  0  0  0
 51 52  1  0  0  0  0
 51 50  1  0  0  0  0
 52 55  1  0  0  0  0
 53 51  2  0  0  0  0
 54 52  1  0  0  0  0
M  END
>  <minimizedAffinity>
-3.4945848

$$$$
