
 OpenBabel09132204463D

 20 21  0  0  1  0  0  0  0  0999 V2000
    4.9010   -3.9740    5.2120 S   0  0  0  0  0  0  0  0  0  0  0  0
    5.0300   -4.7920    6.3930 O   0  0  0  0  0  0  0  0  0  0  0  0
    5.7260   -2.7950    5.0290 O   0  0  0  0  0  0  0  0  0  0  0  0
    3.2270   -3.4290    5.0640 C   0  0  0  0  0  0  0  0  0  0  0  0
    2.9770   -2.0750    4.8060 C   0  0  0  0  0  3  0  0  0  0  0  0
    1.6620   -1.6310    4.6960 C   0  0  0  0  0  0  0  0  0  0  0  0
    1.3470    0.0330    4.4030 Cl  0  0  0  0  0  0  0  0  0  0  0  0
    0.6000   -2.5200    4.8300 C   0  0  0  0  0  3  0  0  0  0  0  0
    0.8560   -3.8730    5.0590 C   0  0  0  0  0  0  0  0  0  0  0  0
   -0.4940   -4.9430    5.2010 Cl  0  0  0  0  0  0  0  0  0  0  0  0
    2.1720   -4.3430    5.1610 C   0  0  0  0  0  0  0  0  0  0  0  0
    2.3660   -5.6850    5.3620 O   0  0  0  0  0  0  0  0  0  0  0  0
    3.2580   -5.9580    5.0550 H   0  0  0  0  0  0  0  0  0  0  0  0
    5.8970   -4.4600    2.6740 C   0  0  2  0  0  3  0  0  0  0  0  0
    5.4880   -5.4580    1.5850 C   0  0  0  0  0  2  0  0  0  0  0  0
    4.0120   -5.6770    1.8620 C   0  0  0  0  0  2  0  0  0  0  0  0
    3.9290   -5.6880    3.3830 C   0  0  0  0  0  2  0  0  0  0  0  0
    5.1250   -4.9410    3.8570 N   0  0  0  0  0  0  0  0  0  0  0  0
    5.3920   -1.9930    1.8840 N   0  0  0  0  0  0  0  0  0  0  0  0
    5.6420   -3.0740    2.2270 C   0  0  0  0  0  0  0  0  0  0  0  0
  1  2  2  0  0  0  0
  3  1  2  0  0  0  0
  4 11  1  0  0  0  0
  4  1  1  0  0  0  0
  5  4  2  0  0  0  0
  6  5  1  0  0  0  0
  6  8  2  0  0  0  0
  7  6  1  0  0  0  0
  8  9  1  0  0  0  0
  9 11  2  0  0  0  0
  9 10  1  0  0  0  0
 11 12  1  0  0  0  0
 13 12  1  0  0  0  0
 14 20  1  6  0  0  0
 14 18  1  0  0  0  0
 15 16  1  0  0  0  0
 15 14  1  0  0  0  0
 16 17  1  0  0  0  0
 17 18  1  0  0  0  0
 18  1  1  0  0  0  0
 19 20  3  0  0  0  0
M  END
>  <minimizedAffinity>
7.73264551

$$$$
