
 OpenBabel09122222393D

 23 26  0  0  0  0  0  0  0  0999 V2000
    2.2150    0.1820    7.3310 C   0  0  0  0  0  1  0  0  0  0  0  0
    2.4560   -1.2490    6.9880 C   0  0  0  0  0  0  0  0  0  0  0  0
    2.1010   -1.9300    5.8240 C   0  0  0  0  0  0  0  0  0  0  0  0
    2.5530   -3.2350    5.9490 N   0  0  0  0  0  0  0  0  0  0  0  0
    3.0270   -3.4370    7.2420 C   0  0  0  0  0  0  0  0  0  0  0  0
    3.4900   -4.6030    7.8870 C   0  0  0  0  0  3  0  0  0  0  0  0
    3.9830   -4.5270    9.2030 C   0  0  0  0  0  0  0  0  0  0  0  0
    3.9950   -3.2840    9.8430 C   0  0  0  0  0  3  0  0  0  0  0  0
    3.5240   -2.1300    9.2060 C   0  0  0  0  0  3  0  0  0  0  0  0
    3.0270   -2.2040    7.8860 C   0  0  0  0  0  0  0  0  0  0  0  0
    1.3540   -1.3100    4.6850 C   0  0  0  0  0  0  0  0  0  0  0  0
    0.0680   -0.7060    4.7090 C   0  0  0  0  0  3  0  0  0  0  0  0
   -0.2020   -0.3040    3.4220 C   0  0  0  0  0  3  0  0  0  0  0  0
    0.8220   -0.6390    2.5980 O   0  0  0  0  0  0  0  0  0  0  0  0
    1.7550   -1.2600    3.3690 C   0  0  0  0  0  3  0  0  0  0  0  0
    2.7110   -4.2610    4.9310 C   0  0  0  0  0  3  0  0  0  0  0  0
    4.0450   -4.2330    4.1730 C   0  0  0  0  0  2  0  0  0  0  0  0
    4.4010   -5.6960    3.9060 C   0  0  0  0  0  2  0  0  0  0  0  0
    3.1250   -6.4830    4.1690 C   0  0  0  0  0  2  0  0  0  0  0  0
    2.4620   -5.7250    5.3130 C   0  0  0  0  0  2  0  0  0  0  0  0
    4.4930   -5.7730    9.9060 C   0  0  0  0  0  0  0  0  0  0  0  0
    5.7340   -5.8170   10.1790 O   0  0  0  0  0  1  0  0  0  0  0  0
    3.6410   -6.6800   10.1740 O   0  0  0  0  0  0  0  0  0  0  0  0
  2  1  1  0  0  0  0
  2 10  1  0  0  0  0
  3  4  1  0  0  0  0
  3  2  2  0  0  0  0
  4  5  1  0  0  0  0
  5 10  2  0  0  0  0
  5  6  1  0  0  0  0
  6  7  2  0  0  0  0
  7  8  1  0  0  0  0
  7 21  1  0  0  0  0
  9  8  2  0  0  0  0
 10  9  1  0  0  0  0
 11 12  1  0  0  0  0
 11  3  1  0  0  0  0
 13 12  2  0  0  0  0
 14 15  1  0  0  0  0
 14 13  1  0  0  0  0
 15 11  2  0  0  0  0
 16 20  1  0  0  0  0
 16  4  1  0  0  0  0
 17 16  1  0  0  0  0
 18 19  1  0  0  0  0
 18 17  1  0  0  0  0
 19 20  1  0  0  0  0
 21 23  2  0  0  0  0
 21 22  1  0  0  0  0
M  END
>  <minimizedAffinity>
-0.345845193

$$$$
