
 OpenBabel09122218033D

 23 26  0  0  0  0  0  0  0  0999 V2000
    1.6290   -0.5580    5.4220 C   0  0  0  0  0  1  0  0  0  0  0  0
    2.4900   -1.7280    5.7600 C   0  0  0  0  0  0  0  0  0  0  0  0
    2.9870   -2.1040    7.0070 C   0  0  0  0  0  0  0  0  0  0  0  0
    3.7170   -3.2690    6.8330 N   0  0  0  0  0  0  0  0  0  0  0  0
    3.8380   -3.5390    5.4720 C   0  0  0  0  0  0  0  0  0  0  0  0
    4.5620   -4.5370    4.7870 C   0  0  0  0  0  3  0  0  0  0  0  0
    4.4670   -4.6350    3.3870 C   0  0  0  0  0  0  0  0  0  0  0  0
    3.6510   -3.7260    2.7050 C   0  0  0  0  0  3  0  0  0  0  0  0
    2.9420   -2.7290    3.3860 C   0  0  0  0  0  3  0  0  0  0  0  0
    3.0390   -2.6270    4.7920 C   0  0  0  0  0  0  0  0  0  0  0  0
    2.7530   -1.3330    8.2690 C   0  0  0  0  0  0  0  0  0  0  0  0
    3.6050   -0.3750    8.8790 C   0  0  0  0  0  3  0  0  0  0  0  0
    2.9720    0.0400   10.0270 C   0  0  0  0  0  3  0  0  0  0  0  0
    1.7940   -0.6140   10.1790 O   0  0  0  0  0  0  0  0  0  0  0  0
    1.6740   -1.4530    9.1160 C   0  0  0  0  0  3  0  0  0  0  0  0
    4.1850   -4.2240    7.8240 C   0  0  0  0  0  3  0  0  0  0  0  0
    3.3020   -5.4650    8.0080 C   0  0  0  0  0  2  0  0  0  0  0  0
    4.2640   -6.6220    8.2860 C   0  0  0  0  0  2  0  0  0  0  0  0
    5.5990   -5.9730    8.6200 C   0  0  0  0  0  2  0  0  0  0  0  0
    5.6300   -4.7320    7.7360 C   0  0  0  0  0  2  0  0  0  0  0  0
    5.2330   -5.7100    2.6370 C   0  0  0  0  0  0  0  0  0  0  0  0
    5.3400   -5.5740    1.3760 O   0  0  0  0  0  0  0  0  0  0  0  0
    5.7160   -6.6670    3.3240 O   0  0  0  0  0  1  0  0  0  0  0  0
  1  2  1  0  0  0  0
  2  3  2  0  0  0  0
  3 11  1  0  0  0  0
  4  3  1  0  0  0  0
  4 16  1  0  0  0  0
  5  4  1  0  0  0  0
  6  5  2  0  0  0  0
  7  6  1  0  0  0  0
  8  9  1  0  0  0  0
  8  7  2  0  0  0  0
  9 10  2  0  0  0  0
 10  5  1  0  0  0  0
 10  2  1  0  0  0  0
 11 12  1  0  0  0  0
 11 15  2  0  0  0  0
 12 13  2  0  0  0  0
 13 14  1  0  0  0  0
 15 14  1  0  0  0  0
 16 17  1  0  0  0  0
 17 18  1  0  0  0  0
 18 19  1  0  0  0  0
 20 16  1  0  0  0  0
 20 19  1  0  0  0  0
 21 23  1  0  0  0  0
 21  7  1  0  0  0  0
 22 21  2  0  0  0  0
M  END
>  <minimizedAffinity>
-2.01711917

$$$$

 OpenBabel09122218033D

 23 26  0  0  0  0  0  0  0  0999 V2000
    3.0850   -1.9670    9.9060 C   0  0  0  0  0  1  0  0  0  0  0  0
    2.8860   -2.6100    8.5750 C   0  0  0  0  0  0  0  0  0  0  0  0
    3.3100   -3.8690    8.1520 C   0  0  0  0  0  0  0  0  0  0  0  0
    2.8760   -4.0390    6.8470 N   0  0  0  0  0  0  0  0  0  0  0  0
    2.3400   -2.8420    6.3780 C   0  0  0  0  0  0  0  0  0  0  0  0
    1.8660   -2.4770    5.1010 C   0  0  0  0  0  3  0  0  0  0  0  0
    1.3070   -1.2020    4.9000 C   0  0  0  0  0  0  0  0  0  0  0  0
    1.2410   -0.3200    5.9840 C   0  0  0  0  0  3  0  0  0  0  0  0
    1.7230   -0.6810    7.2480 C   0  0  0  0  0  3  0  0  0  0  0  0
    2.2870   -1.9600    7.4510 C   0  0  0  0  0  0  0  0  0  0  0  0
    4.1040   -4.8140    8.9990 C   0  0  0  0  0  0  0  0  0  0  0  0
    5.4410   -4.6660    9.4570 C   0  0  0  0  0  3  0  0  0  0  0  0
    5.7360   -5.7980   10.1790 C   0  0  0  0  0  3  0  0  0  0  0  0
    4.6790   -6.6480   10.1800 O   0  0  0  0  0  0  0  0  0  0  0  0
    3.6980   -6.0490    9.4520 C   0  0  0  0  0  3  0  0  0  0  0  0
    2.7870   -5.2540    6.0530 C   0  0  0  0  0  3  0  0  0  0  0  0
    1.4930   -6.0600    6.2290 C   0  0  0  0  0  2  0  0  0  0  0  0
    1.1750   -6.6420    4.8510 C   0  0  0  0  0  2  0  0  0  0  0  0
    2.4490   -6.4790    4.0330 C   0  0  0  0  0  2  0  0  0  0  0  0
    3.0400   -5.1700    4.5420 C   0  0  0  0  0  2  0  0  0  0  0  0
    0.7840   -0.7990    3.5330 C   0  0  0  0  0  0  0  0  0  0  0  0
    1.5440   -1.0110    2.5350 O   0  0  0  0  0  0  0  0  0  0  0  0
   -0.3780   -0.2810    3.4840 O   0  0  0  0  0  1  0  0  0  0  0  0
  2  1  1  0  0  0  0
  3  2  2  0  0  0  0
  3 11  1  0  0  0  0
  4  3  1  0  0  0  0
  5  4  1  0  0  0  0
  5 10  1  0  0  0  0
  6  5  2  0  0  0  0
  7  6  1  0  0  0  0
  7  8  2  0  0  0  0
  8  9  1  0  0  0  0
  9 10  2  0  0  0  0
 10  2  1  0  0  0  0
 11 15  2  0  0  0  0
 11 12  1  0  0  0  0
 12 13  2  0  0  0  0
 13 14  1  0  0  0  0
 15 14  1  0  0  0  0
 16 17  1  0  0  0  0
 16  4  1  0  0  0  0
 18 17  1  0  0  0  0
 19 20  1  0  0  0  0
 19 18  1  0  0  0  0
 20 16  1  0  0  0  0
 21  7  1  0  0  0  0
 22 21  2  0  0  0  0
 23 21  1  0  0  0  0
M  END
>  <minimizedAffinity>
-0.606981814

$$$$

 OpenBabel09122218033D

 23 26  0  0  0  0  0  0  0  0999 V2000
    2.2150    0.1820    7.3310 C   0  0  0  0  0  1  0  0  0  0  0  0
    2.4560   -1.2490    6.9880 C   0  0  0  0  0  0  0  0  0  0  0  0
    2.1010   -1.9300    5.8240 C   0  0  0  0  0  0  0  0  0  0  0  0
    2.5530   -3.2350    5.9490 N   0  0  0  0  0  0  0  0  0  0  0  0
    3.0270   -3.4370    7.2420 C   0  0  0  0  0  0  0  0  0  0  0  0
    3.4900   -4.6030    7.8870 C   0  0  0  0  0  3  0  0  0  0  0  0
    3.9830   -4.5270    9.2030 C   0  0  0  0  0  0  0  0  0  0  0  0
    3.9950   -3.2840    9.8430 C   0  0  0  0  0  3  0  0  0  0  0  0
    3.5240   -2.1300    9.2060 C   0  0  0  0  0  3  0  0  0  0  0  0
    3.0270   -2.2040    7.8860 C   0  0  0  0  0  0  0  0  0  0  0  0
    1.3540   -1.3100    4.6850 C   0  0  0  0  0  0  0  0  0  0  0  0
    0.0680   -0.7060    4.7090 C   0  0  0  0  0  3  0  0  0  0  0  0
   -0.2020   -0.3040    3.4220 C   0  0  0  0  0  3  0  0  0  0  0  0
    0.8220   -0.6390    2.5980 O   0  0  0  0  0  0  0  0  0  0  0  0
    1.7550   -1.2600    3.3690 C   0  0  0  0  0  3  0  0  0  0  0  0
    2.7110   -4.2610    4.9310 C   0  0  0  0  0  3  0  0  0  0  0  0
    4.0450   -4.2330    4.1730 C   0  0  0  0  0  2  0  0  0  0  0  0
    4.4010   -5.6960    3.9060 C   0  0  0  0  0  2  0  0  0  0  0  0
    3.1250   -6.4830    4.1690 C   0  0  0  0  0  2  0  0  0  0  0  0
    2.4620   -5.7250    5.3130 C   0  0  0  0  0  2  0  0  0  0  0  0
    4.4930   -5.7730    9.9060 C   0  0  0  0  0  0  0  0  0  0  0  0
    5.7340   -5.8170   10.1790 O   0  0  0  0  0  1  0  0  0  0  0  0
    3.6410   -6.6800   10.1740 O   0  0  0  0  0  0  0  0  0  0  0  0
  2  1  1  0  0  0  0
  2 10  1  0  0  0  0
  3  4  1  0  0  0  0
  3  2  2  0  0  0  0
  4  5  1  0  0  0  0
  5 10  2  0  0  0  0
  5  6  1  0  0  0  0
  6  7  2  0  0  0  0
  7  8  1  0  0  0  0
  7 21  1  0  0  0  0
  9  8  2  0  0  0  0
 10  9  1  0  0  0  0
 11 12  1  0  0  0  0
 11  3  1  0  0  0  0
 13 12  2  0  0  0  0
 14 15  1  0  0  0  0
 14 13  1  0  0  0  0
 15 11  2  0  0  0  0
 16 20  1  0  0  0  0
 16  4  1  0  0  0  0
 17 16  1  0  0  0  0
 18 19  1  0  0  0  0
 18 17  1  0  0  0  0
 19 20  1  0  0  0  0
 21 23  2  0  0  0  0
 21 22  1  0  0  0  0
M  END
>  <minimizedAffinity>
-0.345845193

$$$$

 OpenBabel09122218033D

 23 26  0  0  0  0  0  0  0  0999 V2000
    5.2800   -6.1260    7.3380 C   0  0  0  0  0  1  0  0  0  0  0  0
    4.5060   -4.8830    7.0560 C   0  0  0  0  0  0  0  0  0  0  0  0
    3.8400   -4.5270    5.8840 C   0  0  0  0  0  0  0  0  0  0  0  0
    3.2460   -3.2930    6.0990 N   0  0  0  0  0  0  0  0  0  0  0  0
    3.6720   -2.7820    7.3220 C   0  0  0  0  0  0  0  0  0  0  0  0
    3.4380   -1.5340    7.9370 C   0  0  0  0  0  3  0  0  0  0  0  0
    3.9400   -1.2840    9.2270 C   0  0  0  0  0  0  0  0  0  0  0  0
    4.6700   -2.2890    9.8690 C   0  0  0  0  0  3  0  0  0  0  0  0
    4.9120   -3.5220    9.2520 C   0  0  0  0  0  3  0  0  0  0  0  0
    4.4100   -3.7750    7.9560 C   0  0  0  0  0  0  0  0  0  0  0  0
    3.8200   -5.3660    4.6440 C   0  0  0  0  0  0  0  0  0  0  0  0
    4.8840   -5.6020    3.7330 C   0  0  0  0  0  3  0  0  0  0  0  0
    4.3800   -6.4140    2.7430 C   0  0  0  0  0  3  0  0  0  0  0  0
    3.0700   -6.6780    2.9700 O   0  0  0  0  0  0  0  0  0  0  0  0
    2.7350   -6.0280    4.1180 C   0  0  0  0  0  3  0  0  0  0  0  0
    2.2090   -2.6200    5.3340 C   0  0  0  0  0  3  0  0  0  0  0  0
    1.4260   -1.5420    6.0950 C   0  0  0  0  0  2  0  0  0  0  0  0
    1.1290   -0.4440    5.0730 C   0  0  0  0  0  2  0  0  0  0  0  0
    1.4050   -1.0670    3.7110 C   0  0  0  0  0  2  0  0  0  0  0  0
    2.5730   -2.0090    3.9750 C   0  0  0  0  0  2  0  0  0  0  0  0
    3.6870    0.0510    9.9040 C   0  0  0  0  0  0  0  0  0  0  0  0
    4.7050    0.7650   10.1780 O   0  0  0  0  0  1  0  0  0  0  0  0
    2.4770    0.3620   10.1450 O   0  0  0  0  0  0  0  0  0  0  0  0
  2  1  1  0  0  0  0
  2 10  1  0  0  0  0
  3  4  1  0  0  0  0
  3  2  2  0  0  0  0
  4  5  1  0  0  0  0
  5  6  2  0  0  0  0
  5 10  1  0  0  0  0
  6  7  1  0  0  0  0
  7  8  2  0  0  0  0
  7 21  1  0  0  0  0
  9  8  1  0  0  0  0
 10  9  2  0  0  0  0
 11  3  1  0  0  0  0
 12 11  1  0  0  0  0
 13 14  1  0  0  0  0
 13 12  2  0  0  0  0
 14 15  1  0  0  0  0
 15 11  2  0  0  0  0
 16 17  1  0  0  0  0
 16  4  1  0  0  0  0
 18 17  1  0  0  0  0
 19 20  1  0  0  0  0
 19 18  1  0  0  0  0
 20 16  1  0  0  0  0
 21 23  2  0  0  0  0
 21 22  1  0  0  0  0
M  END
>  <minimizedAffinity>
0.689399362

$$$$
