
 OpenBabel09122222393D

 23 26  0  0  0  0  0  0  0  0999 V2000
    1.6290   -0.5580    5.4220 C   0  0  0  0  0  1  0  0  0  0  0  0
    2.4900   -1.7280    5.7600 C   0  0  0  0  0  0  0  0  0  0  0  0
    2.9870   -2.1040    7.0070 C   0  0  0  0  0  0  0  0  0  0  0  0
    3.7170   -3.2690    6.8330 N   0  0  0  0  0  0  0  0  0  0  0  0
    3.8380   -3.5390    5.4720 C   0  0  0  0  0  0  0  0  0  0  0  0
    4.5620   -4.5370    4.7870 C   0  0  0  0  0  3  0  0  0  0  0  0
    4.4670   -4.6350    3.3870 C   0  0  0  0  0  0  0  0  0  0  0  0
    3.6510   -3.7260    2.7050 C   0  0  0  0  0  3  0  0  0  0  0  0
    2.9420   -2.7290    3.3860 C   0  0  0  0  0  3  0  0  0  0  0  0
    3.0390   -2.6270    4.7920 C   0  0  0  0  0  0  0  0  0  0  0  0
    2.7530   -1.3330    8.2690 C   0  0  0  0  0  0  0  0  0  0  0  0
    3.6050   -0.3750    8.8790 C   0  0  0  0  0  3  0  0  0  0  0  0
    2.9720    0.0400   10.0270 C   0  0  0  0  0  3  0  0  0  0  0  0
    1.7940   -0.6140   10.1790 O   0  0  0  0  0  0  0  0  0  0  0  0
    1.6740   -1.4530    9.1160 C   0  0  0  0  0  3  0  0  0  0  0  0
    4.1850   -4.2240    7.8240 C   0  0  0  0  0  3  0  0  0  0  0  0
    3.3020   -5.4650    8.0080 C   0  0  0  0  0  2  0  0  0  0  0  0
    4.2640   -6.6220    8.2860 C   0  0  0  0  0  2  0  0  0  0  0  0
    5.5990   -5.9730    8.6200 C   0  0  0  0  0  2  0  0  0  0  0  0
    5.6300   -4.7320    7.7360 C   0  0  0  0  0  2  0  0  0  0  0  0
    5.2330   -5.7100    2.6370 C   0  0  0  0  0  0  0  0  0  0  0  0
    5.3400   -5.5740    1.3760 O   0  0  0  0  0  0  0  0  0  0  0  0
    5.7160   -6.6670    3.3240 O   0  0  0  0  0  1  0  0  0  0  0  0
  1  2  1  0  0  0  0
  2  3  2  0  0  0  0
  3 11  1  0  0  0  0
  4  3  1  0  0  0  0
  4 16  1  0  0  0  0
  5  4  1  0  0  0  0
  6  5  2  0  0  0  0
  7  6  1  0  0  0  0
  8  9  1  0  0  0  0
  8  7  2  0  0  0  0
  9 10  2  0  0  0  0
 10  5  1  0  0  0  0
 10  2  1  0  0  0  0
 11 12  1  0  0  0  0
 11 15  2  0  0  0  0
 12 13  2  0  0  0  0
 13 14  1  0  0  0  0
 15 14  1  0  0  0  0
 16 17  1  0  0  0  0
 17 18  1  0  0  0  0
 18 19  1  0  0  0  0
 20 16  1  0  0  0  0
 20 19  1  0  0  0  0
 21 23  1  0  0  0  0
 21  7  1  0  0  0  0
 22 21  2  0  0  0  0
M  END
>  <minimizedAffinity>
-2.01711917

$$$$
