
 OpenBabel09182209113D

 40 45  0  0  1  0  0  0  0  0999 V2000
    5.7450   -7.1560    1.5760 C   0  0  0  0  0  0  0  0  0  0  0  0
    6.0080   -8.1750    2.4960 C   0  0  0  0  0  3  0  0  0  0  0  0
    5.1560   -9.2790    2.5820 C   0  0  0  0  0  3  0  0  0  0  0  0
    4.0210   -9.3740    1.7710 C   0  0  0  0  0  0  0  0  0  0  0  0
    3.7450   -8.3470    0.8710 C   0  0  0  0  0  3  0  0  0  0  0  0
    4.5970   -7.2390    0.7820 C   0  0  0  0  0  3  0  0  0  0  0  0
    9.7670   -2.8800    0.3870 C   0  0  0  0  0  0  0  0  0  0  0  0
    9.0970   -2.1760    1.4010 C   0  0  0  0  0  3  0  0  0  0  0  0
    8.0100   -2.7210    2.0940 C   0  0  0  0  0  3  0  0  0  0  0  0
    7.5980   -4.0130    1.7410 C   0  0  0  0  0  0  0  0  0  0  0  0
    8.2340   -4.7390    0.7370 C   0  0  0  0  0  0  0  0  0  0  0  0
    9.3240   -4.1750    0.0540 C   0  0  0  0  0  3  0  0  0  0  0  0
    7.6460   -5.9690    0.5760 N   0  0  0  0  0  0  0  0  0  0  0  0
    6.6470   -6.0140    1.4330 C   0  0  0  0  0  0  0  0  0  0  0  0
    6.6100   -4.8600    2.2000 N   0  0  0  0  0  0  0  0  0  0  0  0
    5.7170   -4.6200    3.3310 C   0  0  0  0  0  3  0  0  0  0  0  0
    6.3500   -3.7450    4.4270 C   0  0  0  0  0  2  0  0  0  0  0  0
    5.4020   -3.5740    5.6140 C   0  0  0  0  0  2  0  0  0  0  0  0
    4.0410   -3.0400    5.1760 C   0  0  0  0  0  2  0  0  0  0  0  0
    3.4100   -3.9190    4.0990 C   0  0  0  0  0  2  0  0  0  0  0  0
    4.3390   -4.0980    2.8980 C   0  0  0  0  0  2  0  0  0  0  0  0
   12.0300   -2.9180   -0.3540 O   0  0  0  0  0  1  0  0  0  0  0  0
   10.9440   -2.2540   -0.3350 C   0  0  0  0  0  0  0  0  0  0  0  0
   10.7630   -1.1150   -0.8690 O   0  0  0  0  0  0  0  0  0  0  0  0
    3.3160  -10.5320    1.9280 O   0  0  0  0  0  0  0  0  0  0  0  0
    3.9290  -11.8320    1.8320 C   0  0  1  0  0  3  0  0  0  0  0  0
    4.0290  -12.5670    3.1740 C   0  0  0  0  0  0  0  0  0  0  0  0
    2.8360  -12.8780    3.8580 C   0  0  0  0  0  3  0  0  0  0  0  0
    2.8640  -13.5360    5.0890 C   0  0  0  0  0  3  0  0  0  0  0  0
    4.0850  -13.8940    5.6440 C   0  0  0  0  0  0  0  0  0  0  0  0
    4.1140  -14.5170    6.8300 F   0  0  0  0  0  0  0  0  0  0  0  0
    5.2760  -13.6100    4.9900 C   0  0  0  0  0  3  0  0  0  0  0  0
    5.2490  -12.9520    3.7570 C   0  0  0  0  0  3  0  0  0  0  0  0
    3.5620  -12.6390    0.5780 C   0  0  0  0  0  0  0  0  0  0  0  0
    2.5780  -12.1420   -0.3040 C   0  0  0  0  0  3  0  0  0  0  0  0
    2.1990  -12.8600   -1.4410 C   0  0  0  0  0  3  0  0  0  0  0  0
    2.7880  -14.0900   -1.6990 C   0  0  0  0  0  0  0  0  0  0  0  0
    2.4240  -14.7790   -2.7870 F   0  0  0  0  0  0  0  0  0  0  0  0
    3.7380  -14.6180   -0.8380 C   0  0  0  0  0  3  0  0  0  0  0  0
    4.1160  -13.9010    0.3010 C   0  0  0  0  0  3  0  0  0  0  0  0
  1  2  1  0  0  0  0
  2  3  2  0  0  0  0
  4 25  1  0  0  0  0
  4  3  1  0  0  0  0
  5  4  2  0  0  0  0
  6  5  1  0  0  0  0
  6  1  2  0  0  0  0
  7  8  1  0  0  0  0
  8  9  2  0  0  0  0
 10  9  1  0  0  0  0
 10 15  1  0  0  0  0
 11 10  2  0  0  0  0
 12  7  2  0  0  0  0
 12 11  1  0  0  0  0
 13 11  1  0  0  0  0
 13 14  2  0  0  0  0
 14  1  1  0  0  0  0
 14 15  1  0  0  0  0
 15 16  1  0  0  0  0
 16 17  1  0  0  0  0
 17 18  1  0  0  0  0
 19 18  1  0  0  0  0
 20 19  1  0  0  0  0
 21 16  1  0  0  0  0
 21 20  1  0  0  0  0
 22 23  1  0  0  0  0
 23  7  1  0  0  0  0
 24 23  2  0  0  0  0
 26 25  1  1  0  0  0
 26 27  1  0  0  0  0
 27 33  2  0  0  0  0
 27 28  1  0  0  0  0
 28 29  2  0  0  0  0
 29 30  1  0  0  0  0
 30 31  1  0  0  0  0
 32 30  2  0  0  0  0
 33 32  1  0  0  0  0
 34 26  1  0  0  0  0
 35 34  2  0  0  0  0
 36 35  1  0  0  0  0
 37 36  2  0  0  0  0
 37 39  1  0  0  0  0
 38 37  1  0  0  0  0
 39 40  2  0  0  0  0
 40 34  1  0  0  0  0
M  END
>  <minimizedAffinity>
-9.44250774

$$$$
