
 OpenBabel09182209113D

 40 45  0  0  1  0  0  0  0  0999 V2000
    4.2840   -8.8010    3.0470 C   0  0  0  0  0  0  0  0  0  0  0  0
    3.5480   -9.4630    2.0610 C   0  0  0  0  0  3  0  0  0  0  0  0
    3.7620  -10.8230    1.8210 C   0  0  0  0  0  3  0  0  0  0  0  0
    4.7220  -11.5370    2.5460 C   0  0  0  0  0  0  0  0  0  0  0  0
    5.4730  -10.8700    3.5120 C   0  0  0  0  0  3  0  0  0  0  0  0
    5.2610   -9.5070    3.7530 C   0  0  0  0  0  3  0  0  0  0  0  0
    2.8290   -3.2800    4.8620 C   0  0  0  0  0  0  0  0  0  0  0  0
    3.7570   -2.8770    3.8870 C   0  0  0  0  0  3  0  0  0  0  0  0
    4.4460   -3.7960    3.0870 C   0  0  0  0  0  3  0  0  0  0  0  0
    4.1810   -5.1570    3.2890 C   0  0  0  0  0  0  0  0  0  0  0  0
    3.2730   -5.5950    4.2500 C   0  0  0  0  0  0  0  0  0  0  0  0
    2.5900   -4.6570    5.0420 C   0  0  0  0  0  3  0  0  0  0  0  0
    3.1920   -6.9650    4.2590 N   0  0  0  0  0  0  0  0  0  0  0  0
    4.0460   -7.3900    3.3490 C   0  0  0  0  0  0  0  0  0  0  0  0
    4.6370   -6.3180    2.6980 N   0  0  0  0  0  0  0  0  0  0  0  0
    5.5360   -6.4130    1.5500 C   0  0  0  0  0  3  0  0  0  0  0  0
    4.8180   -6.2190    0.2030 C   0  0  0  0  0  2  0  0  0  0  0  0
    5.7850   -6.3870   -0.9680 C   0  0  0  0  0  2  0  0  0  0  0  0
    6.9990   -5.4710   -0.8330 C   0  0  0  0  0  2  0  0  0  0  0  0
    7.7160   -5.6760    0.4980 C   0  0  0  0  0  2  0  0  0  0  0  0
    6.7680   -5.5050    1.6840 C   0  0  0  0  0  2  0  0  0  0  0  0
    1.2330   -1.5310    5.1120 O   0  0  0  0  0  0  0  0  0  0  0  0
    2.1010   -2.2510    5.7030 C   0  0  0  0  0  0  0  0  0  0  0  0
    2.4070   -2.1810    6.9340 O   0  0  0  0  0  1  0  0  0  0  0  0
    4.7790  -12.8650    2.2410 O   0  0  0  0  0  0  0  0  0  0  0  0
    3.6120  -13.7100    2.2330 C   0  0  1  0  0  3  0  0  0  0  0  0
    3.4220  -14.4860    0.9250 C   0  0  0  0  0  0  0  0  0  0  0  0
    4.5440  -15.1220    0.3540 C   0  0  0  0  0  3  0  0  0  0  0  0
    4.4350  -15.8340   -0.8420 C   0  0  0  0  0  3  0  0  0  0  0  0
    3.2030  -15.9220   -1.4750 C   0  0  0  0  0  0  0  0  0  0  0  0
    3.0980  -16.5970   -2.6270 F   0  0  0  0  0  0  0  0  0  0  0  0
    2.0780  -15.3160   -0.9310 C   0  0  0  0  0  3  0  0  0  0  0  0
    2.1860  -14.6030    0.2660 C   0  0  0  0  0  3  0  0  0  0  0  0
    3.3090  -14.4200    3.5610 C   0  0  0  0  0  0  0  0  0  0  0  0
    3.2360  -15.8290    3.5930 C   0  0  0  0  0  3  0  0  0  0  0  0
    2.9370  -16.5100    4.7760 C   0  0  0  0  0  3  0  0  0  0  0  0
    2.6900  -15.7870    5.9350 C   0  0  0  0  0  0  0  0  0  0  0  0
    2.4010  -16.4380    7.0690 F   0  0  0  0  0  0  0  0  0  0  0  0
    2.7270  -14.4010    5.9300 C   0  0  0  0  0  3  0  0  0  0  0  0
    3.0240  -13.7200    4.7460 C   0  0  0  0  0  3  0  0  0  0  0  0
  1 14  1  0  0  0  0
  1  6  1  0  0  0  0
  2  1  2  0  0  0  0
  3  2  1  0  0  0  0
  3  4  2  0  0  0  0
  4  5  1  0  0  0  0
  5  6  2  0  0  0  0
  7 12  1  0  0  0  0
  7 23  1  0  0  0  0
  8  7  2  0  0  0  0
  9 10  2  0  0  0  0
  9  8  1  0  0  0  0
 10 11  1  0  0  0  0
 11 13  1  0  0  0  0
 11 12  2  0  0  0  0
 14 13  2  0  0  0  0
 15 10  1  0  0  0  0
 15 14  1  0  0  0  0
 16 21  1  0  0  0  0
 16 15  1  0  0  0  0
 17 16  1  0  0  0  0
 18 19  1  0  0  0  0
 18 17  1  0  0  0  0
 19 20  1  0  0  0  0
 20 21  1  0  0  0  0
 22 23  2  0  0  0  0
 23 24  1  0  0  0  0
 25  4  1  0  0  0  0
 26 25  1  1  0  0  0
 26 34  1  0  0  0  0
 27 26  1  0  0  0  0
 28 27  1  0  0  0  0
 29 28  2  0  0  0  0
 30 32  2  0  0  0  0
 30 29  1  0  0  0  0
 31 30  1  0  0  0  0
 32 33  1  0  0  0  0
 33 27  2  0  0  0  0
 34 35  2  0  0  0  0
 34 40  1  0  0  0  0
 35 36  1  0  0  0  0
 36 37  2  0  0  0  0
 37 38  1  0  0  0  0
 39 37  1  0  0  0  0
 40 39  2  0  0  0  0
M  END
>  <minimizedAffinity>
-9.55641651

$$$$
