
 OpenBabel09182209113D

 40 45  0  0  1  0  0  0  0  0999 V2000
    4.2900   -8.8010    3.1900 C   0  0  0  0  0  0  0  0  0  0  0  0
    5.1980   -9.5380    3.9540 C   0  0  0  0  0  3  0  0  0  0  0  0
    5.4530  -10.8760    3.6420 C   0  0  0  0  0  3  0  0  0  0  0  0
    4.7950  -11.5030    2.5790 C   0  0  0  0  0  0  0  0  0  0  0  0
    3.8720  -10.7740    1.8320 C   0  0  0  0  0  3  0  0  0  0  0  0
    3.6130   -9.4340    2.1430 C   0  0  0  0  0  3  0  0  0  0  0  0
    2.7980   -3.2610    4.9130 C   0  0  0  0  0  0  0  0  0  0  0  0
    3.7050   -2.8680    3.9150 C   0  0  0  0  0  3  0  0  0  0  0  0
    4.3920   -3.7950    3.1240 C   0  0  0  0  0  3  0  0  0  0  0  0
    4.1470   -5.1540    3.3580 C   0  0  0  0  0  0  0  0  0  0  0  0
    3.2590   -5.5830    4.3430 C   0  0  0  0  0  0  0  0  0  0  0  0
    2.5780   -4.6360    5.1260 C   0  0  0  0  0  3  0  0  0  0  0  0
    3.1960   -6.9530    4.3800 N   0  0  0  0  0  0  0  0  0  0  0  0
    4.0400   -7.3870    3.4660 C   0  0  0  0  0  0  0  0  0  0  0  0
    4.6080   -6.3210    2.7830 N   0  0  0  0  0  0  0  0  0  0  0  0
    5.4890   -6.4300    1.6230 C   0  0  0  0  0  3  0  0  0  0  0  0
    4.7460   -6.2800    0.2840 C   0  0  0  0  0  2  0  0  0  0  0  0
    5.6970   -6.4610   -0.8990 C   0  0  0  0  0  2  0  0  0  0  0  0
    6.8970   -5.5220   -0.8060 C   0  0  0  0  0  2  0  0  0  0  0  0
    7.6390   -5.6840    0.5180 C   0  0  0  0  0  2  0  0  0  0  0  0
    6.7080   -5.4990    1.7150 C   0  0  0  0  0  2  0  0  0  0  0  0
    1.2260   -1.4860    5.1400 O   0  0  0  0  0  0  0  0  0  0  0  0
    2.0700   -2.2230    5.7450 C   0  0  0  0  0  0  0  0  0  0  0  0
    2.3530   -2.1630    6.9820 O   0  0  0  0  0  1  0  0  0  0  0  0
    5.1870  -12.7910    2.3600 O   0  0  0  0  0  0  0  0  0  0  0  0
    4.2780  -13.9050    2.4560 C   0  0  1  0  0  3  0  0  0  0  0  0
    3.4070  -13.8820    3.7170 C   0  0  0  0  0  0  0  0  0  0  0  0
    3.9430  -14.4040    4.9120 C   0  0  0  0  0  3  0  0  0  0  0  0
    3.1930  -14.4190    6.0900 C   0  0  0  0  0  3  0  0  0  0  0  0
    1.9030  -13.9080    6.0840 C   0  0  0  0  0  0  0  0  0  0  0  0
    1.1780  -13.9310    7.2110 F   0  0  0  0  0  0  0  0  0  0  0  0
    1.3510  -13.3770    4.9260 C   0  0  0  0  0  3  0  0  0  0  0  0
    2.1010  -13.3610    3.7470 C   0  0  0  0  0  3  0  0  0  0  0  0
    3.6430  -14.3490    1.1300 C   0  0  0  0  0  0  0  0  0  0  0  0
    4.0320  -13.7190   -0.0710 C   0  0  0  0  0  3  0  0  0  0  0  0
    3.4580  -14.0770   -1.2930 C   0  0  0  0  0  3  0  0  0  0  0  0
    2.4760  -15.0570   -1.3240 C   0  0  0  0  0  0  0  0  0  0  0  0
    1.9220  -15.4000   -2.4940 F   0  0  0  0  0  0  0  0  0  0  0  0
    2.0510  -15.6760   -0.1570 C   0  0  0  0  0  3  0  0  0  0  0  0
    2.6240  -15.3160    1.0660 C   0  0  0  0  0  3  0  0  0  0  0  0
  1 14  1  0  0  0  0
  1  2  1  0  0  0  0
  3  2  2  0  0  0  0
  4  3  1  0  0  0  0
  5  6  1  0  0  0  0
  5  4  2  0  0  0  0
  6  1  2  0  0  0  0
  7 12  1  0  0  0  0
  7 23  1  0  0  0  0
  8  7  2  0  0  0  0
  9 10  2  0  0  0  0
  9  8  1  0  0  0  0
 10 11  1  0  0  0  0
 11 13  1  0  0  0  0
 11 12  2  0  0  0  0
 14 13  2  0  0  0  0
 15 10  1  0  0  0  0
 15 14  1  0  0  0  0
 16 21  1  0  0  0  0
 16 15  1  0  0  0  0
 17 16  1  0  0  0  0
 18 19  1  0  0  0  0
 18 17  1  0  0  0  0
 19 20  1  0  0  0  0
 20 21  1  0  0  0  0
 22 23  2  0  0  0  0
 23 24  1  0  0  0  0
 25  4  1  0  0  0  0
 26 25  1  6  0  0  0
 26 27  1  0  0  0  0
 27 33  2  0  0  0  0
 27 28  1  0  0  0  0
 28 29  2  0  0  0  0
 30 29  1  0  0  0  0
 30 31  1  0  0  0  0
 32 30  2  0  0  0  0
 33 32  1  0  0  0  0
 34 26  1  0  0  0  0
 35 34  2  0  0  0  0
 36 35  1  0  0  0  0
 37 36  2  0  0  0  0
 37 39  1  0  0  0  0
 38 37  1  0  0  0  0
 39 40  2  0  0  0  0
 40 34  1  0  0  0  0
M  END
>  <minimizedAffinity>
-9.62586021

$$$$
