
 OpenBabel09182209113D

 40 45  0  0  1  0  0  0  0  0999 V2000
    3.6830  -10.9810    1.5990 C   0  0  0  0  0  0  0  0  0  0  0  0
    2.8670   -9.8460    1.6080 C   0  0  0  0  0  3  0  0  0  0  0  0
    3.2730   -8.6960    2.2900 C   0  0  0  0  0  3  0  0  0  0  0  0
    4.4840   -8.6660    2.9880 C   0  0  0  0  0  0  0  0  0  0  0  0
    5.2860   -9.8050    3.0010 C   0  0  0  0  0  3  0  0  0  0  0  0
    4.8820  -10.9590    2.3180 C   0  0  0  0  0  3  0  0  0  0  0  0
    2.1720  -15.4400   -2.1030 C   0  0  0  0  0  0  0  0  0  0  0  0
    2.1970  -16.2190   -0.9350 C   0  0  0  0  0  3  0  0  0  0  0  0
    2.4960  -15.6730    0.3190 C   0  0  0  0  0  3  0  0  0  0  0  0
    2.7760  -14.3020    0.3790 C   0  0  0  0  0  0  0  0  0  0  0  0
    2.7670  -13.4990   -0.7590 C   0  0  0  0  0  0  0  0  0  0  0  0
    2.4630  -14.0650   -2.0080 C   0  0  0  0  0  3  0  0  0  0  0  0
    3.0760  -12.1990   -0.4430 N   0  0  0  0  0  0  0  0  0  0  0  0
    3.3040  -12.1800    0.8540 C   0  0  0  0  0  0  0  0  0  0  0  0
    3.0850  -13.4340    1.4060 N   0  0  0  0  0  0  0  0  0  0  0  0
    3.1190  -13.7510    2.8320 C   0  0  0  0  0  3  0  0  0  0  0  0
    1.7950  -14.3390    3.3520 C   0  0  0  0  0  2  0  0  0  0  0  0
    1.8590  -14.5970    4.8570 C   0  0  0  0  0  2  0  0  0  0  0  0
    3.0550  -15.4710    5.2290 C   0  0  0  0  0  2  0  0  0  0  0  0
    4.3670  -14.8770    4.7240 C   0  0  0  0  0  2  0  0  0  0  0  0
    4.3280  -14.6170    3.2180 C   0  0  0  0  0  2  0  0  0  0  0  0
    1.8090  -15.2980   -4.4530 O   0  0  0  0  0  0  0  0  0  0  0  0
    1.8380  -16.0700   -3.4410 C   0  0  0  0  0  0  0  0  0  0  0  0
    1.6110  -17.3210   -3.4570 O   0  0  0  0  0  1  0  0  0  0  0  0
    4.7710   -7.4600    3.5580 O   0  0  0  0  0  0  0  0  0  0  0  0
    4.5580   -6.2090    2.8750 C   0  0  1  0  0  3  0  0  0  0  0  0
    4.2250   -5.0430    3.8140 C   0  0  0  0  0  0  0  0  0  0  0  0
    4.4310   -5.2180    5.1980 C   0  0  0  0  0  3  0  0  0  0  0  0
    4.1370   -4.1970    6.1030 C   0  0  0  0  0  3  0  0  0  0  0  0
    3.6390   -2.9900    5.6320 C   0  0  0  0  0  0  0  0  0  0  0  0
    3.3470   -2.0120    6.4990 F   0  0  0  0  0  0  0  0  0  0  0  0
    3.4370   -2.7840    4.2740 C   0  0  0  0  0  3  0  0  0  0  0  0
    3.7320   -3.8050    3.3670 C   0  0  0  0  0  3  0  0  0  0  0  0
    5.4870   -5.9490    1.6800 C   0  0  0  0  0  0  0  0  0  0  0  0
    6.7880   -5.4520    1.9070 C   0  0  0  0  0  3  0  0  0  0  0  0
    7.6520   -5.1780    0.8440 C   0  0  0  0  0  3  0  0  0  0  0  0
    7.2180   -5.3830   -0.4580 C   0  0  0  0  0  0  0  0  0  0  0  0
    8.0440   -5.1190   -1.4790 F   0  0  0  0  0  0  0  0  0  0  0  0
    5.9350   -5.8440   -0.7160 C   0  0  0  0  0  3  0  0  0  0  0  0
    5.0700   -6.1160    0.3470 C   0  0  0  0  0  3  0  0  0  0  0  0
  1  2  2  0  0  0  0
  1  6  1  0  0  0  0
  2  3  1  0  0  0  0
  3  4  2  0  0  0  0
  4  5  1  0  0  0  0
  4 25  1  0  0  0  0
  6  5  2  0  0  0  0
  7 12  2  0  0  0  0
  7  8  1  0  0  0  0
  8  9  2  0  0  0  0
  9 10  1  0  0  0  0
 10 15  1  0  0  0  0
 11 13  1  0  0  0  0
 11 10  2  0  0  0  0
 12 11  1  0  0  0  0
 13 14  2  0  0  0  0
 14 15  1  0  0  0  0
 14  1  1  0  0  0  0
 15 16  1  0  0  0  0
 16 21  1  0  0  0  0
 16 17  1  0  0  0  0
 17 18  1  0  0  0  0
 18 19  1  0  0  0  0
 20 19  1  0  0  0  0
 21 20  1  0  0  0  0
 22 23  2  0  0  0  0
 23  7  1  0  0  0  0
 24 23  1  0  0  0  0
 26 25  1  1  0  0  0
 26 27  1  0  0  0  0
 27 28  1  0  0  0  0
 28 29  2  0  0  0  0
 30 29  1  0  0  0  0
 30 31  1  0  0  0  0
 32 30  2  0  0  0  0
 33 27  2  0  0  0  0
 33 32  1  0  0  0  0
 34 35  1  0  0  0  0
 34 26  1  0  0  0  0
 36 35  2  0  0  0  0
 37 36  1  0  0  0  0
 38 37  1  0  0  0  0
 39 37  2  0  0  0  0
 39 40  1  0  0  0  0
 40 34  2  0  0  0  0
M  END
>  <minimizedAffinity>
-9.6666441

$$$$
