
 OpenBabel09182209113D

 40 45  0  0  1  0  0  0  0  0999 V2000
    4.4070  -10.9790    2.4490 C   0  0  0  0  0  0  0  0  0  0  0  0
    5.5770  -10.3780    2.9210 C   0  0  0  0  0  3  0  0  0  0  0  0
    5.5380   -9.0800    3.4390 C   0  0  0  0  0  3  0  0  0  0  0  0
    4.3410   -8.3570    3.4740 C   0  0  0  0  0  0  0  0  0  0  0  0
    3.1800   -8.9480    2.9790 C   0  0  0  0  0  3  0  0  0  0  0  0
    3.2160  -10.2480    2.4600 C   0  0  0  0  0  3  0  0  0  0  0  0
    4.3870  -16.2830   -0.3340 C   0  0  0  0  0  0  0  0  0  0  0  0
    4.5440  -16.7970    0.9640 C   0  0  0  0  0  3  0  0  0  0  0  0
    4.6050  -15.9690    2.0910 C   0  0  0  0  0  3  0  0  0  0  0  0
    4.5030  -14.5880    1.8860 C   0  0  0  0  0  0  0  0  0  0  0  0
    4.3520  -14.0410    0.6140 C   0  0  0  0  0  0  0  0  0  0  0  0
    4.2920  -14.8880   -0.5050 C   0  0  0  0  0  3  0  0  0  0  0  0
    4.2810  -12.6720    0.6750 N   0  0  0  0  0  0  0  0  0  0  0  0
    4.4120  -12.3520    1.9460 C   0  0  0  0  0  0  0  0  0  0  0  0
    4.5010  -13.4940    2.7290 N   0  0  0  0  0  0  0  0  0  0  0  0
    4.5270  -13.5230    4.1890 C   0  0  0  0  0  3  0  0  0  0  0  0
    5.9030  -13.1630    4.7770 C   0  0  0  0  0  2  0  0  0  0  0  0
    5.8970  -13.2660    6.3020 C   0  0  0  0  0  2  0  0  0  0  0  0
    4.7780  -12.4290    6.9180 C   0  0  0  0  0  2  0  0  0  0  0  0
    3.4140  -12.7990    6.3430 C   0  0  0  0  0  2  0  0  0  0  0  0
    3.3950  -12.6960    4.8190 C   0  0  0  0  0  2  0  0  0  0  0  0
    3.3210  -17.0890   -2.3060 O   0  0  0  0  0  0  0  0  0  0  0  0
    4.3210  -17.2160   -1.5280 C   0  0  0  0  0  0  0  0  0  0  0  0
    5.2650  -18.0550   -1.6660 O   0  0  0  0  0  1  0  0  0  0  0  0
    4.4470   -7.1280    4.0550 O   0  0  0  0  0  0  0  0  0  0  0  0
    4.2550   -5.9030    3.3210 C   0  0  1  0  0  3  0  0  0  0  0  0
    4.0770   -4.6700    4.2160 C   0  0  0  0  0  0  0  0  0  0  0  0
    2.9070   -3.8980    4.0680 C   0  0  0  0  0  3  0  0  0  0  0  0
    2.6940   -2.7590    4.8470 C   0  0  0  0  0  3  0  0  0  0  0  0
    3.6470   -2.3850    5.7840 C   0  0  0  0  0  0  0  0  0  0  0  0
    3.4500   -1.2870    6.5250 F   0  0  0  0  0  0  0  0  0  0  0  0
    4.8050   -3.1320    5.9600 C   0  0  0  0  0  3  0  0  0  0  0  0
    5.0180   -4.2720    5.1820 C   0  0  0  0  0  3  0  0  0  0  0  0
    5.0910   -5.7690    2.0410 C   0  0  0  0  0  0  0  0  0  0  0  0
    4.4760   -5.9650    0.7860 C   0  0  0  0  0  3  0  0  0  0  0  0
    5.2100   -5.8770   -0.4000 C   0  0  0  0  0  3  0  0  0  0  0  0
    6.5700   -5.6090   -0.3410 C   0  0  0  0  0  0  0  0  0  0  0  0
    7.2760   -5.5260   -1.4770 F   0  0  0  0  0  0  0  0  0  0  0  0
    7.2100   -5.4370    0.8770 C   0  0  0  0  0  3  0  0  0  0  0  0
    6.4770   -5.5280    2.0640 C   0  0  0  0  0  3  0  0  0  0  0  0
  1  6  2  0  0  0  0
  1  2  1  0  0  0  0
  2  3  2  0  0  0  0
  3  4  1  0  0  0  0
  4 25  1  0  0  0  0
  5  4  2  0  0  0  0
  6  5  1  0  0  0  0
  7  8  1  0  0  0  0
  8  9  2  0  0  0  0
 10  9  1  0  0  0  0
 10 15  1  0  0  0  0
 11 13  1  0  0  0  0
 11 10  2  0  0  0  0
 12  7  2  0  0  0  0
 12 11  1  0  0  0  0
 13 14  2  0  0  0  0
 14  1  1  0  0  0  0
 14 15  1  0  0  0  0
 15 16  1  0  0  0  0
 16 17  1  0  0  0  0
 16 21  1  0  0  0  0
 17 18  1  0  0  0  0
 18 19  1  0  0  0  0
 20 19  1  0  0  0  0
 21 20  1  0  0  0  0
 22 23  2  0  0  0  0
 23  7  1  0  0  0  0
 24 23  1  0  0  0  0
 26 25  1  1  0  0  0
 26 27  1  0  0  0  0
 27 33  1  0  0  0  0
 28 27  2  0  0  0  0
 28 29  1  0  0  0  0
 29 30  2  0  0  0  0
 30 32  1  0  0  0  0
 30 31  1  0  0  0  0
 33 32  2  0  0  0  0
 34 40  1  0  0  0  0
 34 26  1  0  0  0  0
 35 34  2  0  0  0  0
 36 37  2  0  0  0  0
 36 35  1  0  0  0  0
 37 39  1  0  0  0  0
 38 37  1  0  0  0  0
 39 40  2  0  0  0  0
M  END
>  <minimizedAffinity>
-9.65609837

$$$$
