
 OpenBabel09142200013D

 40 45  0  0  1  0  0  0  0  0999 V2000
    6.2420   -6.5280    0.5350 C   0  0  0  0  0  0  0  0  0  0  0  0
    6.1170   -5.8570   -0.6840 C   0  0  0  0  0  3  0  0  0  0  0  0
    7.1500   -5.0320   -1.1390 C   0  0  0  0  0  3  0  0  0  0  0  0
    8.3090   -4.8490   -0.3800 C   0  0  0  0  0  0  0  0  0  0  0  0
    8.4230   -5.4990    0.8470 C   0  0  0  0  0  3  0  0  0  0  0  0
    7.3900   -6.3260    1.3060 C   0  0  0  0  0  3  0  0  0  0  0  0
    2.1150  -10.6700    1.8380 C   0  0  0  0  0  0  0  0  0  0  0  0
    1.9430   -9.9150    3.0100 C   0  0  0  0  0  3  0  0  0  0  0  0
    2.6790   -8.7510    3.2620 C   0  0  0  0  0  3  0  0  0  0  0  0
    3.6110   -8.3510    2.2950 C   0  0  0  0  0  0  0  0  0  0  0  0
    3.8130   -9.0770    1.1240 C   0  0  0  0  0  0  0  0  0  0  0  0
    3.0640  -10.2420    0.8880 C   0  0  0  0  0  3  0  0  0  0  0  0
    4.7760   -8.4880    0.3440 N   0  0  0  0  0  0  0  0  0  0  0  0
    5.1970   -7.4330    1.0110 C   0  0  0  0  0  0  0  0  0  0  0  0
    4.4780   -7.2830    2.1880 N   0  0  0  0  0  0  0  0  0  0  0  0
    4.5870   -6.1560    3.1110 C   0  0  0  0  0  3  0  0  0  0  0  0
    4.1480   -4.8190    2.4870 C   0  0  0  0  0  2  0  0  0  0  0  0
    4.3370   -3.6630    3.4690 C   0  0  0  0  0  2  0  0  0  0  0  0
    3.6320   -3.9300    4.7960 C   0  0  0  0  0  2  0  0  0  0  0  0
    4.0810   -5.2500    5.4180 C   0  0  0  0  0  2  0  0  0  0  0  0
    3.8930   -6.4220    4.4560 C   0  0  0  0  0  2  0  0  0  0  0  0
    1.6250  -12.6530    0.6150 O   0  0  0  0  0  0  0  0  0  0  0  0
    1.2930  -11.9210    1.6020 C   0  0  0  0  0  0  0  0  0  0  0  0
    0.3340  -12.1500    2.4040 O   0  0  0  0  0  1  0  0  0  0  0  0
    9.2510   -4.0630   -0.9760 O   0  0  0  0  0  0  0  0  0  0  0  0
   10.3850   -3.5330   -0.2620 C   0  0  1  0  0  3  0  0  0  0  0  0
   11.4830   -2.9770   -1.1770 C   0  0  0  0  0  0  0  0  0  0  0  0
   12.6760   -3.7160   -1.3170 C   0  0  0  0  0  3  0  0  0  0  0  0
   13.7150   -3.2550   -2.1280 C   0  0  0  0  0  3  0  0  0  0  0  0
   13.5690   -2.0540   -2.8080 C   0  0  0  0  0  0  0  0  0  0  0  0
   14.5690   -1.6050   -3.5780 F   0  0  0  0  0  0  0  0  0  0  0  0
   12.4020   -1.3100   -2.6980 C   0  0  0  0  0  3  0  0  0  0  0  0
   11.3610   -1.7700   -1.8880 C   0  0  0  0  0  3  0  0  0  0  0  0
   10.0500   -2.7750    1.0310 C   0  0  0  0  0  0  0  0  0  0  0  0
    9.2370   -1.6240    0.9690 C   0  0  0  0  0  3  0  0  0  0  0  0
    8.9320   -0.8930    2.1200 C   0  0  0  0  0  3  0  0  0  0  0  0
    9.4510   -1.2970    3.3420 C   0  0  0  0  0  0  0  0  0  0  0  0
    9.1610   -0.5970    4.4460 F   0  0  0  0  0  0  0  0  0  0  0  0
   10.2750   -2.4090    3.4320 C   0  0  0  0  0  3  0  0  0  0  0  0
   10.5830   -3.1390    2.2800 C   0  0  0  0  0  3  0  0  0  0  0  0
  1 14  1  0  0  0  0
  1  6  1  0  0  0  0
  2  1  2  0  0  0  0
  3  2  1  0  0  0  0
  3  4  2  0  0  0  0
  4  5  1  0  0  0  0
  5  6  2  0  0  0  0
  7  8  1  0  0  0  0
  8  9  2  0  0  0  0
 10  9  1  0  0  0  0
 11 10  2  0  0  0  0
 12 11  1  0  0  0  0
 12  7  2  0  0  0  0
 13 14  2  0  0  0  0
 13 11  1  0  0  0  0
 14 15  1  0  0  0  0
 15 10  1  0  0  0  0
 15 16  1  0  0  0  0
 16 21  1  0  0  0  0
 17 16  1  0  0  0  0
 17 18  1  0  0  0  0
 18 19  1  0  0  0  0
 19 20  1  0  0  0  0
 21 20  1  0  0  0  0
 22 23  2  0  0  0  0
 23  7  1  0  0  0  0
 23 24  1  0  0  0  0
 25  4  1  0  0  0  0
 26 25  1  6  0  0  0
 26 34  1  0  0  0  0
 27 26  1  0  0  0  0
 28 27  1  0  0  0  0
 29 28  2  0  0  0  0
 30 32  2  0  0  0  0
 30 29  1  0  0  0  0
 31 30  1  0  0  0  0
 32 33  1  0  0  0  0
 33 27  2  0  0  0  0
 34 40  1  0  0  0  0
 35 34  2  0  0  0  0
 35 36  1  0  0  0  0
 36 37  2  0  0  0  0
 37 39  1  0  0  0  0
 37 38  1  0  0  0  0
 40 39  2  0  0  0  0
M  END
>  <minimizedAffinity>
-10.6550713

$$$$

 OpenBabel09142200013D

 40 45  0  0  1  0  0  0  0  0999 V2000
    6.3020   -6.7090    0.5070 C   0  0  0  0  0  0  0  0  0  0  0  0
    7.5450   -6.6560    1.1420 C   0  0  0  0  0  3  0  0  0  0  0  0
    8.5390   -5.7960    0.6660 C   0  0  0  0  0  3  0  0  0  0  0  0
    8.3160   -4.9940   -0.4570 C   0  0  0  0  0  0  0  0  0  0  0  0
    7.0840   -5.0650   -1.1050 C   0  0  0  0  0  3  0  0  0  0  0  0
    6.0870   -5.9260   -0.6310 C   0  0  0  0  0  3  0  0  0  0  0  0
    2.0510  -10.6770    1.9460 C   0  0  0  0  0  0  0  0  0  0  0  0
    1.9020   -9.8780    3.0910 C   0  0  0  0  0  3  0  0  0  0  0  0
    2.6730   -8.7290    3.3040 C   0  0  0  0  0  3  0  0  0  0  0  0
    3.6160   -8.3910    2.3250 C   0  0  0  0  0  0  0  0  0  0  0  0
    3.7970   -9.1630    1.1800 C   0  0  0  0  0  0  0  0  0  0  0  0
    3.0130  -10.3110    0.9840 C   0  0  0  0  0  3  0  0  0  0  0  0
    4.7780   -8.6300    0.3810 N   0  0  0  0  0  0  0  0  0  0  0  0
    5.2300   -7.5660    1.0120 C   0  0  0  0  0  0  0  0  0  0  0  0
    4.5150   -7.3530    2.1820 N   0  0  0  0  0  0  0  0  0  0  0  0
    4.6580   -6.1990    3.0660 C   0  0  0  0  0  3  0  0  0  0  0  0
    4.2780   -4.8700    2.3910 C   0  0  0  0  0  2  0  0  0  0  0  0
    4.5010   -3.6870    3.3330 C   0  0  0  0  0  2  0  0  0  0  0  0
    3.7720   -3.8790    4.6610 C   0  0  0  0  0  2  0  0  0  0  0  0
    4.1630   -5.1920    5.3340 C   0  0  0  0  0  2  0  0  0  0  0  0
    3.9410   -6.3900    4.4110 C   0  0  0  0  0  2  0  0  0  0  0  0
    0.2800  -12.1220    2.6150 O   0  0  0  0  0  1  0  0  0  0  0  0
    1.1920  -11.9110    1.7520 C   0  0  0  0  0  0  0  0  0  0  0  0
    1.4410  -12.6440    0.7450 O   0  0  0  0  0  0  0  0  0  0  0  0
    9.3550   -4.1670   -0.7690 O   0  0  0  0  0  0  0  0  0  0  0  0
    9.4990   -2.8520   -0.1980 C   0  0  1  0  0  3  0  0  0  0  0  0
    9.3880   -2.8280    1.3310 C   0  0  0  0  0  0  0  0  0  0  0  0
   10.5770   -2.7900    2.0880 C   0  0  0  0  0  3  0  0  0  0  0  0
   10.5400   -2.7780    3.4830 C   0  0  0  0  0  3  0  0  0  0  0  0
    9.3140   -2.7980    4.1340 C   0  0  0  0  0  0  0  0  0  0  0  0
    9.2760   -2.7960    5.4730 F   0  0  0  0  0  0  0  0  0  0  0  0
    8.1260   -2.8250    3.4160 C   0  0  0  0  0  3  0  0  0  0  0  0
    8.1620   -2.8360    2.0190 C   0  0  0  0  0  3  0  0  0  0  0  0
   10.5470   -1.9550   -0.8740 C   0  0  0  0  0  0  0  0  0  0  0  0
   10.3200   -0.5650   -0.9600 C   0  0  0  0  0  3  0  0  0  0  0  0
   11.2380    0.2790   -1.5900 C   0  0  0  0  0  3  0  0  0  0  0  0
   12.3840   -0.2610   -2.1560 C   0  0  0  0  0  0  0  0  0  0  0  0
   13.2630    0.5460   -2.7620 F   0  0  0  0  0  0  0  0  0  0  0  0
   12.6230   -1.6270   -2.1130 C   0  0  0  0  0  3  0  0  0  0  0  0
   11.7030   -2.4720   -1.4850 C   0  0  0  0  0  3  0  0  0  0  0  0
  1 14  1  0  0  0  0
  1  2  1  0  0  0  0
  3  2  2  0  0  0  0
  4  3  1  0  0  0  0
  5  6  1  0  0  0  0
  5  4  2  0  0  0  0
  6  1  2  0  0  0  0
  7  8  1  0  0  0  0
  8  9  2  0  0  0  0
 10  9  1  0  0  0  0
 11 10  2  0  0  0  0
 12 11  1  0  0  0  0
 12  7  2  0  0  0  0
 13 14  2  0  0  0  0
 13 11  1  0  0  0  0
 14 15  1  0  0  0  0
 15 10  1  0  0  0  0
 15 16  1  0  0  0  0
 16 21  1  0  0  0  0
 17 16  1  0  0  0  0
 17 18  1  0  0  0  0
 18 19  1  0  0  0  0
 19 20  1  0  0  0  0
 21 20  1  0  0  0  0
 23  7  1  0  0  0  0
 23 22  1  0  0  0  0
 24 23  2  0  0  0  0
 25  4  1  0  0  0  0
 26 25  1  1  0  0  0
 26 27  1  0  0  0  0
 27 33  2  0  0  0  0
 27 28  1  0  0  0  0
 28 29  2  0  0  0  0
 29 30  1  0  0  0  0
 30 31  1  0  0  0  0
 32 30  2  0  0  0  0
 33 32  1  0  0  0  0
 34 26  1  0  0  0  0
 35 34  1  0  0  0  0
 36 35  2  0  0  0  0
 37 39  2  0  0  0  0
 37 36  1  0  0  0  0
 38 37  1  0  0  0  0
 39 40  1  0  0  0  0
 40 34  2  0  0  0  0
M  END
>  <minimizedAffinity>
-10.4906445

$$$$

 OpenBabel09142200013D

 40 45  0  0  1  0  0  0  0  0999 V2000
    3.6610  -10.7320    1.8830 C   0  0  0  0  0  0  0  0  0  0  0  0
    2.7150   -9.7270    2.1050 C   0  0  0  0  0  3  0  0  0  0  0  0
    3.0770   -8.5620    2.7870 C   0  0  0  0  0  3  0  0  0  0  0  0
    4.3760   -8.3910    3.2740 C   0  0  0  0  0  0  0  0  0  0  0  0
    5.3120   -9.4030    3.0750 C   0  0  0  0  0  3  0  0  0  0  0  0
    4.9520  -10.5720    2.3920 C   0  0  0  0  0  3  0  0  0  0  0  0
    2.2840  -15.2150   -1.8430 C   0  0  0  0  0  0  0  0  0  0  0  0
    2.3510  -16.0020   -0.6820 C   0  0  0  0  0  3  0  0  0  0  0  0
    2.6420  -15.4560    0.5740 C   0  0  0  0  0  3  0  0  0  0  0  0
    2.8700  -14.0760    0.6430 C   0  0  0  0  0  0  0  0  0  0  0  0
    2.8180  -13.2640   -0.4880 C   0  0  0  0  0  0  0  0  0  0  0  0
    2.5230  -13.8310   -1.7390 C   0  0  0  0  0  3  0  0  0  0  0  0
    3.0800  -11.9560   -0.1640 N   0  0  0  0  0  0  0  0  0  0  0  0
    3.3200  -11.9390    1.1310 C   0  0  0  0  0  0  0  0  0  0  0  0
    3.1550  -13.2050    1.6750 N   0  0  0  0  0  0  0  0  0  0  0  0
    3.2160  -13.5330    3.0970 C   0  0  0  0  0  3  0  0  0  0  0  0
    1.8910  -14.0910    3.6460 C   0  0  0  0  0  2  0  0  0  0  0  0
    1.9850  -14.3610    5.1470 C   0  0  0  0  0  2  0  0  0  0  0  0
    3.1670  -15.2660    5.4840 C   0  0  0  0  0  2  0  0  0  0  0  0
    4.4810  -14.7010    4.9500 C   0  0  0  0  0  2  0  0  0  0  0  0
    4.4120  -14.4310    3.4480 C   0  0  0  0  0  2  0  0  0  0  0  0
    1.8540  -15.0640   -4.1810 O   0  0  0  0  0  0  0  0  0  0  0  0
    1.9600  -15.8470   -3.1830 C   0  0  0  0  0  0  0  0  0  0  0  0
    1.8190  -17.1090   -3.2140 O   0  0  0  0  0  1  0  0  0  0  0  0
    4.5960   -7.1830    3.8690 O   0  0  0  0  0  0  0  0  0  0  0  0
    4.4210   -5.9330    3.1740 C   0  0  1  0  0  3  0  0  0  0  0  0
    4.2290   -4.7310    4.1060 C   0  0  0  0  0  0  0  0  0  0  0  0
    3.0580   -3.9560    3.9690 C   0  0  0  0  0  3  0  0  0  0  0  0
    2.8330   -2.8450    4.7820 C   0  0  0  0  0  3  0  0  0  0  0  0
    3.7720   -2.5000    5.7440 C   0  0  0  0  0  0  0  0  0  0  0  0
    3.5620   -1.4280    6.5190 F   0  0  0  0  0  0  0  0  0  0  0  0
    4.9290   -3.2500    5.9110 C   0  0  0  0  0  3  0  0  0  0  0  0
    5.1560   -4.3630    5.0970 C   0  0  0  0  0  3  0  0  0  0  0  0
    5.2830   -5.7570    1.9150 C   0  0  0  0  0  0  0  0  0  0  0  0
    4.7140   -5.9940    0.6460 C   0  0  0  0  0  3  0  0  0  0  0  0
    5.4740   -5.8700   -0.5200 C   0  0  0  0  0  3  0  0  0  0  0  0
    6.8150   -5.5240   -0.4270 C   0  0  0  0  0  0  0  0  0  0  0  0
    7.5450   -5.4060   -1.5440 F   0  0  0  0  0  0  0  0  0  0  0  0
    7.4110   -5.3110    0.8070 C   0  0  0  0  0  3  0  0  0  0  0  0
    6.6510   -5.4380    1.9740 C   0  0  0  0  0  3  0  0  0  0  0  0
  1  2  2  0  0  0  0
  1  6  1  0  0  0  0
  2  3  1  0  0  0  0
  3  4  2  0  0  0  0
  4 25  1  0  0  0  0
  5  4  1  0  0  0  0
  6  5  2  0  0  0  0
  7 12  2  0  0  0  0
  7  8  1  0  0  0  0
  8  9  2  0  0  0  0
  9 10  1  0  0  0  0
 10 15  1  0  0  0  0
 11 13  1  0  0  0  0
 11 10  2  0  0  0  0
 12 11  1  0  0  0  0
 13 14  2  0  0  0  0
 14 15  1  0  0  0  0
 14  1  1  0  0  0  0
 15 16  1  0  0  0  0
 16 21  1  0  0  0  0
 16 17  1  0  0  0  0
 17 18  1  0  0  0  0
 18 19  1  0  0  0  0
 20 19  1  0  0  0  0
 21 20  1  0  0  0  0
 22 23  2  0  0  0  0
 23  7  1  0  0  0  0
 24 23  1  0  0  0  0
 26 25  1  1  0  0  0
 26 27  1  0  0  0  0
 27 33  1  0  0  0  0
 28 27  2  0  0  0  0
 28 29  1  0  0  0  0
 29 30  2  0  0  0  0
 30 32  1  0  0  0  0
 30 31  1  0  0  0  0
 33 32  2  0  0  0  0
 34 40  1  0  0  0  0
 34 26  1  0  0  0  0
 35 34  2  0  0  0  0
 36 37  2  0  0  0  0
 36 35  1  0  0  0  0
 37 39  1  0  0  0  0
 38 37  1  0  0  0  0
 39 40  2  0  0  0  0
M  END
>  <minimizedAffinity>
-9.83813572

$$$$

 OpenBabel09142200013D

 40 45  0  0  1  0  0  0  0  0999 V2000
    3.6830  -10.9810    1.5990 C   0  0  0  0  0  0  0  0  0  0  0  0
    2.8670   -9.8460    1.6080 C   0  0  0  0  0  3  0  0  0  0  0  0
    3.2730   -8.6960    2.2900 C   0  0  0  0  0  3  0  0  0  0  0  0
    4.4840   -8.6660    2.9880 C   0  0  0  0  0  0  0  0  0  0  0  0
    5.2860   -9.8050    3.0010 C   0  0  0  0  0  3  0  0  0  0  0  0
    4.8820  -10.9590    2.3180 C   0  0  0  0  0  3  0  0  0  0  0  0
    2.1720  -15.4400   -2.1030 C   0  0  0  0  0  0  0  0  0  0  0  0
    2.1970  -16.2190   -0.9350 C   0  0  0  0  0  3  0  0  0  0  0  0
    2.4960  -15.6730    0.3190 C   0  0  0  0  0  3  0  0  0  0  0  0
    2.7760  -14.3020    0.3790 C   0  0  0  0  0  0  0  0  0  0  0  0
    2.7670  -13.4990   -0.7590 C   0  0  0  0  0  0  0  0  0  0  0  0
    2.4630  -14.0650   -2.0080 C   0  0  0  0  0  3  0  0  0  0  0  0
    3.0760  -12.1990   -0.4430 N   0  0  0  0  0  0  0  0  0  0  0  0
    3.3040  -12.1800    0.8540 C   0  0  0  0  0  0  0  0  0  0  0  0
    3.0850  -13.4340    1.4060 N   0  0  0  0  0  0  0  0  0  0  0  0
    3.1190  -13.7510    2.8320 C   0  0  0  0  0  3  0  0  0  0  0  0
    1.7950  -14.3390    3.3520 C   0  0  0  0  0  2  0  0  0  0  0  0
    1.8590  -14.5970    4.8570 C   0  0  0  0  0  2  0  0  0  0  0  0
    3.0550  -15.4710    5.2290 C   0  0  0  0  0  2  0  0  0  0  0  0
    4.3670  -14.8770    4.7240 C   0  0  0  0  0  2  0  0  0  0  0  0
    4.3280  -14.6170    3.2180 C   0  0  0  0  0  2  0  0  0  0  0  0
    1.8090  -15.2980   -4.4530 O   0  0  0  0  0  0  0  0  0  0  0  0
    1.8380  -16.0700   -3.4410 C   0  0  0  0  0  0  0  0  0  0  0  0
    1.6110  -17.3210   -3.4570 O   0  0  0  0  0  1  0  0  0  0  0  0
    4.7710   -7.4600    3.5580 O   0  0  0  0  0  0  0  0  0  0  0  0
    4.5580   -6.2090    2.8750 C   0  0  1  0  0  3  0  0  0  0  0  0
    4.2250   -5.0430    3.8140 C   0  0  0  0  0  0  0  0  0  0  0  0
    4.4310   -5.2180    5.1980 C   0  0  0  0  0  3  0  0  0  0  0  0
    4.1370   -4.1970    6.1030 C   0  0  0  0  0  3  0  0  0  0  0  0
    3.6390   -2.9900    5.6320 C   0  0  0  0  0  0  0  0  0  0  0  0
    3.3470   -2.0120    6.4990 F   0  0  0  0  0  0  0  0  0  0  0  0
    3.4370   -2.7840    4.2740 C   0  0  0  0  0  3  0  0  0  0  0  0
    3.7320   -3.8050    3.3670 C   0  0  0  0  0  3  0  0  0  0  0  0
    5.4870   -5.9490    1.6800 C   0  0  0  0  0  0  0  0  0  0  0  0
    6.7880   -5.4520    1.9070 C   0  0  0  0  0  3  0  0  0  0  0  0
    7.6520   -5.1780    0.8440 C   0  0  0  0  0  3  0  0  0  0  0  0
    7.2180   -5.3830   -0.4580 C   0  0  0  0  0  0  0  0  0  0  0  0
    8.0440   -5.1190   -1.4790 F   0  0  0  0  0  0  0  0  0  0  0  0
    5.9350   -5.8440   -0.7160 C   0  0  0  0  0  3  0  0  0  0  0  0
    5.0700   -6.1160    0.3470 C   0  0  0  0  0  3  0  0  0  0  0  0
  1  2  2  0  0  0  0
  1  6  1  0  0  0  0
  2  3  1  0  0  0  0
  3  4  2  0  0  0  0
  4  5  1  0  0  0  0
  4 25  1  0  0  0  0
  6  5  2  0  0  0  0
  7 12  2  0  0  0  0
  7  8  1  0  0  0  0
  8  9  2  0  0  0  0
  9 10  1  0  0  0  0
 10 15  1  0  0  0  0
 11 13  1  0  0  0  0
 11 10  2  0  0  0  0
 12 11  1  0  0  0  0
 13 14  2  0  0  0  0
 14 15  1  0  0  0  0
 14  1  1  0  0  0  0
 15 16  1  0  0  0  0
 16 21  1  0  0  0  0
 16 17  1  0  0  0  0
 17 18  1  0  0  0  0
 18 19  1  0  0  0  0
 20 19  1  0  0  0  0
 21 20  1  0  0  0  0
 22 23  2  0  0  0  0
 23  7  1  0  0  0  0
 24 23  1  0  0  0  0
 26 25  1  1  0  0  0
 26 27  1  0  0  0  0
 27 28  1  0  0  0  0
 28 29  2  0  0  0  0
 30 29  1  0  0  0  0
 30 31  1  0  0  0  0
 32 30  2  0  0  0  0
 33 27  2  0  0  0  0
 33 32  1  0  0  0  0
 34 35  1  0  0  0  0
 34 26  1  0  0  0  0
 36 35  2  0  0  0  0
 37 36  1  0  0  0  0
 38 37  1  0  0  0  0
 39 37  2  0  0  0  0
 39 40  1  0  0  0  0
 40 34  2  0  0  0  0
M  END
>  <minimizedAffinity>
-9.6666441

$$$$

 OpenBabel09142200013D

 40 45  0  0  1  0  0  0  0  0999 V2000
    4.4070  -10.9790    2.4490 C   0  0  0  0  0  0  0  0  0  0  0  0
    5.5770  -10.3780    2.9210 C   0  0  0  0  0  3  0  0  0  0  0  0
    5.5380   -9.0800    3.4390 C   0  0  0  0  0  3  0  0  0  0  0  0
    4.3410   -8.3570    3.4740 C   0  0  0  0  0  0  0  0  0  0  0  0
    3.1800   -8.9480    2.9790 C   0  0  0  0  0  3  0  0  0  0  0  0
    3.2160  -10.2480    2.4600 C   0  0  0  0  0  3  0  0  0  0  0  0
    4.3870  -16.2830   -0.3340 C   0  0  0  0  0  0  0  0  0  0  0  0
    4.5440  -16.7970    0.9640 C   0  0  0  0  0  3  0  0  0  0  0  0
    4.6050  -15.9690    2.0910 C   0  0  0  0  0  3  0  0  0  0  0  0
    4.5030  -14.5880    1.8860 C   0  0  0  0  0  0  0  0  0  0  0  0
    4.3520  -14.0410    0.6140 C   0  0  0  0  0  0  0  0  0  0  0  0
    4.2920  -14.8880   -0.5050 C   0  0  0  0  0  3  0  0  0  0  0  0
    4.2810  -12.6720    0.6750 N   0  0  0  0  0  0  0  0  0  0  0  0
    4.4120  -12.3520    1.9460 C   0  0  0  0  0  0  0  0  0  0  0  0
    4.5010  -13.4940    2.7290 N   0  0  0  0  0  0  0  0  0  0  0  0
    4.5270  -13.5230    4.1890 C   0  0  0  0  0  3  0  0  0  0  0  0
    5.9030  -13.1630    4.7770 C   0  0  0  0  0  2  0  0  0  0  0  0
    5.8970  -13.2660    6.3020 C   0  0  0  0  0  2  0  0  0  0  0  0
    4.7780  -12.4290    6.9180 C   0  0  0  0  0  2  0  0  0  0  0  0
    3.4140  -12.7990    6.3430 C   0  0  0  0  0  2  0  0  0  0  0  0
    3.3950  -12.6960    4.8190 C   0  0  0  0  0  2  0  0  0  0  0  0
    3.3210  -17.0890   -2.3060 O   0  0  0  0  0  0  0  0  0  0  0  0
    4.3210  -17.2160   -1.5280 C   0  0  0  0  0  0  0  0  0  0  0  0
    5.2650  -18.0550   -1.6660 O   0  0  0  0  0  1  0  0  0  0  0  0
    4.4470   -7.1280    4.0550 O   0  0  0  0  0  0  0  0  0  0  0  0
    4.2550   -5.9030    3.3210 C   0  0  1  0  0  3  0  0  0  0  0  0
    4.0770   -4.6700    4.2160 C   0  0  0  0  0  0  0  0  0  0  0  0
    2.9070   -3.8980    4.0680 C   0  0  0  0  0  3  0  0  0  0  0  0
    2.6940   -2.7590    4.8470 C   0  0  0  0  0  3  0  0  0  0  0  0
    3.6470   -2.3850    5.7840 C   0  0  0  0  0  0  0  0  0  0  0  0
    3.4500   -1.2870    6.5250 F   0  0  0  0  0  0  0  0  0  0  0  0
    4.8050   -3.1320    5.9600 C   0  0  0  0  0  3  0  0  0  0  0  0
    5.0180   -4.2720    5.1820 C   0  0  0  0  0  3  0  0  0  0  0  0
    5.0910   -5.7690    2.0410 C   0  0  0  0  0  0  0  0  0  0  0  0
    4.4760   -5.9650    0.7860 C   0  0  0  0  0  3  0  0  0  0  0  0
    5.2100   -5.8770   -0.4000 C   0  0  0  0  0  3  0  0  0  0  0  0
    6.5700   -5.6090   -0.3410 C   0  0  0  0  0  0  0  0  0  0  0  0
    7.2760   -5.5260   -1.4770 F   0  0  0  0  0  0  0  0  0  0  0  0
    7.2100   -5.4370    0.8770 C   0  0  0  0  0  3  0  0  0  0  0  0
    6.4770   -5.5280    2.0640 C   0  0  0  0  0  3  0  0  0  0  0  0
  1  6  2  0  0  0  0
  1  2  1  0  0  0  0
  2  3  2  0  0  0  0
  3  4  1  0  0  0  0
  4 25  1  0  0  0  0
  5  4  2  0  0  0  0
  6  5  1  0  0  0  0
  7  8  1  0  0  0  0
  8  9  2  0  0  0  0
 10  9  1  0  0  0  0
 10 15  1  0  0  0  0
 11 13  1  0  0  0  0
 11 10  2  0  0  0  0
 12  7  2  0  0  0  0
 12 11  1  0  0  0  0
 13 14  2  0  0  0  0
 14  1  1  0  0  0  0
 14 15  1  0  0  0  0
 15 16  1  0  0  0  0
 16 17  1  0  0  0  0
 16 21  1  0  0  0  0
 17 18  1  0  0  0  0
 18 19  1  0  0  0  0
 20 19  1  0  0  0  0
 21 20  1  0  0  0  0
 22 23  2  0  0  0  0
 23  7  1  0  0  0  0
 24 23  1  0  0  0  0
 26 25  1  1  0  0  0
 26 27  1  0  0  0  0
 27 33  1  0  0  0  0
 28 27  2  0  0  0  0
 28 29  1  0  0  0  0
 29 30  2  0  0  0  0
 30 32  1  0  0  0  0
 30 31  1  0  0  0  0
 33 32  2  0  0  0  0
 34 40  1  0  0  0  0
 34 26  1  0  0  0  0
 35 34  2  0  0  0  0
 36 37  2  0  0  0  0
 36 35  1  0  0  0  0
 37 39  1  0  0  0  0
 38 37  1  0  0  0  0
 39 40  2  0  0  0  0
M  END
>  <minimizedAffinity>
-9.65609837

$$$$

 OpenBabel09142200013D

 40 45  0  0  1  0  0  0  0  0999 V2000
    4.2900   -8.8010    3.1900 C   0  0  0  0  0  0  0  0  0  0  0  0
    5.1980   -9.5380    3.9540 C   0  0  0  0  0  3  0  0  0  0  0  0
    5.4530  -10.8760    3.6420 C   0  0  0  0  0  3  0  0  0  0  0  0
    4.7950  -11.5030    2.5790 C   0  0  0  0  0  0  0  0  0  0  0  0
    3.8720  -10.7740    1.8320 C   0  0  0  0  0  3  0  0  0  0  0  0
    3.6130   -9.4340    2.1430 C   0  0  0  0  0  3  0  0  0  0  0  0
    2.7980   -3.2610    4.9130 C   0  0  0  0  0  0  0  0  0  0  0  0
    3.7050   -2.8680    3.9150 C   0  0  0  0  0  3  0  0  0  0  0  0
    4.3920   -3.7950    3.1240 C   0  0  0  0  0  3  0  0  0  0  0  0
    4.1470   -5.1540    3.3580 C   0  0  0  0  0  0  0  0  0  0  0  0
    3.2590   -5.5830    4.3430 C   0  0  0  0  0  0  0  0  0  0  0  0
    2.5780   -4.6360    5.1260 C   0  0  0  0  0  3  0  0  0  0  0  0
    3.1960   -6.9530    4.3800 N   0  0  0  0  0  0  0  0  0  0  0  0
    4.0400   -7.3870    3.4660 C   0  0  0  0  0  0  0  0  0  0  0  0
    4.6080   -6.3210    2.7830 N   0  0  0  0  0  0  0  0  0  0  0  0
    5.4890   -6.4300    1.6230 C   0  0  0  0  0  3  0  0  0  0  0  0
    4.7460   -6.2800    0.2840 C   0  0  0  0  0  2  0  0  0  0  0  0
    5.6970   -6.4610   -0.8990 C   0  0  0  0  0  2  0  0  0  0  0  0
    6.8970   -5.5220   -0.8060 C   0  0  0  0  0  2  0  0  0  0  0  0
    7.6390   -5.6840    0.5180 C   0  0  0  0  0  2  0  0  0  0  0  0
    6.7080   -5.4990    1.7150 C   0  0  0  0  0  2  0  0  0  0  0  0
    1.2260   -1.4860    5.1400 O   0  0  0  0  0  0  0  0  0  0  0  0
    2.0700   -2.2230    5.7450 C   0  0  0  0  0  0  0  0  0  0  0  0
    2.3530   -2.1630    6.9820 O   0  0  0  0  0  1  0  0  0  0  0  0
    5.1870  -12.7910    2.3600 O   0  0  0  0  0  0  0  0  0  0  0  0
    4.2780  -13.9050    2.4560 C   0  0  1  0  0  3  0  0  0  0  0  0
    3.4070  -13.8820    3.7170 C   0  0  0  0  0  0  0  0  0  0  0  0
    3.9430  -14.4040    4.9120 C   0  0  0  0  0  3  0  0  0  0  0  0
    3.1930  -14.4190    6.0900 C   0  0  0  0  0  3  0  0  0  0  0  0
    1.9030  -13.9080    6.0840 C   0  0  0  0  0  0  0  0  0  0  0  0
    1.1780  -13.9310    7.2110 F   0  0  0  0  0  0  0  0  0  0  0  0
    1.3510  -13.3770    4.9260 C   0  0  0  0  0  3  0  0  0  0  0  0
    2.1010  -13.3610    3.7470 C   0  0  0  0  0  3  0  0  0  0  0  0
    3.6430  -14.3490    1.1300 C   0  0  0  0  0  0  0  0  0  0  0  0
    4.0320  -13.7190   -0.0710 C   0  0  0  0  0  3  0  0  0  0  0  0
    3.4580  -14.0770   -1.2930 C   0  0  0  0  0  3  0  0  0  0  0  0
    2.4760  -15.0570   -1.3240 C   0  0  0  0  0  0  0  0  0  0  0  0
    1.9220  -15.4000   -2.4940 F   0  0  0  0  0  0  0  0  0  0  0  0
    2.0510  -15.6760   -0.1570 C   0  0  0  0  0  3  0  0  0  0  0  0
    2.6240  -15.3160    1.0660 C   0  0  0  0  0  3  0  0  0  0  0  0
  1 14  1  0  0  0  0
  1  2  1  0  0  0  0
  3  2  2  0  0  0  0
  4  3  1  0  0  0  0
  5  6  1  0  0  0  0
  5  4  2  0  0  0  0
  6  1  2  0  0  0  0
  7 12  1  0  0  0  0
  7 23  1  0  0  0  0
  8  7  2  0  0  0  0
  9 10  2  0  0  0  0
  9  8  1  0  0  0  0
 10 11  1  0  0  0  0
 11 13  1  0  0  0  0
 11 12  2  0  0  0  0
 14 13  2  0  0  0  0
 15 10  1  0  0  0  0
 15 14  1  0  0  0  0
 16 21  1  0  0  0  0
 16 15  1  0  0  0  0
 17 16  1  0  0  0  0
 18 19  1  0  0  0  0
 18 17  1  0  0  0  0
 19 20  1  0  0  0  0
 20 21  1  0  0  0  0
 22 23  2  0  0  0  0
 23 24  1  0  0  0  0
 25  4  1  0  0  0  0
 26 25  1  6  0  0  0
 26 27  1  0  0  0  0
 27 33  2  0  0  0  0
 27 28  1  0  0  0  0
 28 29  2  0  0  0  0
 30 29  1  0  0  0  0
 30 31  1  0  0  0  0
 32 30  2  0  0  0  0
 33 32  1  0  0  0  0
 34 26  1  0  0  0  0
 35 34  2  0  0  0  0
 36 35  1  0  0  0  0
 37 36  2  0  0  0  0
 37 39  1  0  0  0  0
 38 37  1  0  0  0  0
 39 40  2  0  0  0  0
 40 34  1  0  0  0  0
M  END
>  <minimizedAffinity>
-9.62586021

$$$$

 OpenBabel09142200013D

 40 45  0  0  1  0  0  0  0  0999 V2000
    4.2840   -8.8010    3.0470 C   0  0  0  0  0  0  0  0  0  0  0  0
    3.5480   -9.4630    2.0610 C   0  0  0  0  0  3  0  0  0  0  0  0
    3.7620  -10.8230    1.8210 C   0  0  0  0  0  3  0  0  0  0  0  0
    4.7220  -11.5370    2.5460 C   0  0  0  0  0  0  0  0  0  0  0  0
    5.4730  -10.8700    3.5120 C   0  0  0  0  0  3  0  0  0  0  0  0
    5.2610   -9.5070    3.7530 C   0  0  0  0  0  3  0  0  0  0  0  0
    2.8290   -3.2800    4.8620 C   0  0  0  0  0  0  0  0  0  0  0  0
    3.7570   -2.8770    3.8870 C   0  0  0  0  0  3  0  0  0  0  0  0
    4.4460   -3.7960    3.0870 C   0  0  0  0  0  3  0  0  0  0  0  0
    4.1810   -5.1570    3.2890 C   0  0  0  0  0  0  0  0  0  0  0  0
    3.2730   -5.5950    4.2500 C   0  0  0  0  0  0  0  0  0  0  0  0
    2.5900   -4.6570    5.0420 C   0  0  0  0  0  3  0  0  0  0  0  0
    3.1920   -6.9650    4.2590 N   0  0  0  0  0  0  0  0  0  0  0  0
    4.0460   -7.3900    3.3490 C   0  0  0  0  0  0  0  0  0  0  0  0
    4.6370   -6.3180    2.6980 N   0  0  0  0  0  0  0  0  0  0  0  0
    5.5360   -6.4130    1.5500 C   0  0  0  0  0  3  0  0  0  0  0  0
    4.8180   -6.2190    0.2030 C   0  0  0  0  0  2  0  0  0  0  0  0
    5.7850   -6.3870   -0.9680 C   0  0  0  0  0  2  0  0  0  0  0  0
    6.9990   -5.4710   -0.8330 C   0  0  0  0  0  2  0  0  0  0  0  0
    7.7160   -5.6760    0.4980 C   0  0  0  0  0  2  0  0  0  0  0  0
    6.7680   -5.5050    1.6840 C   0  0  0  0  0  2  0  0  0  0  0  0
    1.2330   -1.5310    5.1120 O   0  0  0  0  0  0  0  0  0  0  0  0
    2.1010   -2.2510    5.7030 C   0  0  0  0  0  0  0  0  0  0  0  0
    2.4070   -2.1810    6.9340 O   0  0  0  0  0  1  0  0  0  0  0  0
    4.7790  -12.8650    2.2410 O   0  0  0  0  0  0  0  0  0  0  0  0
    3.6120  -13.7100    2.2330 C   0  0  1  0  0  3  0  0  0  0  0  0
    3.4220  -14.4860    0.9250 C   0  0  0  0  0  0  0  0  0  0  0  0
    4.5440  -15.1220    0.3540 C   0  0  0  0  0  3  0  0  0  0  0  0
    4.4350  -15.8340   -0.8420 C   0  0  0  0  0  3  0  0  0  0  0  0
    3.2030  -15.9220   -1.4750 C   0  0  0  0  0  0  0  0  0  0  0  0
    3.0980  -16.5970   -2.6270 F   0  0  0  0  0  0  0  0  0  0  0  0
    2.0780  -15.3160   -0.9310 C   0  0  0  0  0  3  0  0  0  0  0  0
    2.1860  -14.6030    0.2660 C   0  0  0  0  0  3  0  0  0  0  0  0
    3.3090  -14.4200    3.5610 C   0  0  0  0  0  0  0  0  0  0  0  0
    3.2360  -15.8290    3.5930 C   0  0  0  0  0  3  0  0  0  0  0  0
    2.9370  -16.5100    4.7760 C   0  0  0  0  0  3  0  0  0  0  0  0
    2.6900  -15.7870    5.9350 C   0  0  0  0  0  0  0  0  0  0  0  0
    2.4010  -16.4380    7.0690 F   0  0  0  0  0  0  0  0  0  0  0  0
    2.7270  -14.4010    5.9300 C   0  0  0  0  0  3  0  0  0  0  0  0
    3.0240  -13.7200    4.7460 C   0  0  0  0  0  3  0  0  0  0  0  0
  1 14  1  0  0  0  0
  1  6  1  0  0  0  0
  2  1  2  0  0  0  0
  3  2  1  0  0  0  0
  3  4  2  0  0  0  0
  4  5  1  0  0  0  0
  5  6  2  0  0  0  0
  7 12  1  0  0  0  0
  7 23  1  0  0  0  0
  8  7  2  0  0  0  0
  9 10  2  0  0  0  0
  9  8  1  0  0  0  0
 10 11  1  0  0  0  0
 11 13  1  0  0  0  0
 11 12  2  0  0  0  0
 14 13  2  0  0  0  0
 15 10  1  0  0  0  0
 15 14  1  0  0  0  0
 16 21  1  0  0  0  0
 16 15  1  0  0  0  0
 17 16  1  0  0  0  0
 18 19  1  0  0  0  0
 18 17  1  0  0  0  0
 19 20  1  0  0  0  0
 20 21  1  0  0  0  0
 22 23  2  0  0  0  0
 23 24  1  0  0  0  0
 25  4  1  0  0  0  0
 26 25  1  1  0  0  0
 26 34  1  0  0  0  0
 27 26  1  0  0  0  0
 28 27  1  0  0  0  0
 29 28  2  0  0  0  0
 30 32  2  0  0  0  0
 30 29  1  0  0  0  0
 31 30  1  0  0  0  0
 32 33  1  0  0  0  0
 33 27  2  0  0  0  0
 34 35  2  0  0  0  0
 34 40  1  0  0  0  0
 35 36  1  0  0  0  0
 36 37  2  0  0  0  0
 37 38  1  0  0  0  0
 39 37  1  0  0  0  0
 40 39  2  0  0  0  0
M  END
>  <minimizedAffinity>
-9.55641651

$$$$

 OpenBabel09142200013D

 40 45  0  0  1  0  0  0  0  0999 V2000
    3.6830  -10.5880    1.7070 C   0  0  0  0  0  0  0  0  0  0  0  0
    4.9870  -10.3590    2.1550 C   0  0  0  0  0  3  0  0  0  0  0  0
    5.2770   -9.2240    2.9170 C   0  0  0  0  0  3  0  0  0  0  0  0
    4.2800   -8.2940    3.2270 C   0  0  0  0  0  0  0  0  0  0  0  0
    2.9850   -8.5100    2.7600 C   0  0  0  0  0  3  0  0  0  0  0  0
    2.6920   -9.6460    1.9950 C   0  0  0  0  0  3  0  0  0  0  0  0
    2.2440  -15.0380   -2.0360 C   0  0  0  0  0  0  0  0  0  0  0  0
    2.4310  -15.8500   -0.9040 C   0  0  0  0  0  3  0  0  0  0  0  0
    2.7870  -15.3220    0.3420 C   0  0  0  0  0  3  0  0  0  0  0  0
    2.9560  -13.9340    0.4330 C   0  0  0  0  0  0  0  0  0  0  0  0
    2.7850  -13.0980   -0.6680 C   0  0  0  0  0  0  0  0  0  0  0  0
    2.4260  -13.6470   -1.9100 C   0  0  0  0  0  3  0  0  0  0  0  0
    3.0110  -11.7880   -0.3270 N   0  0  0  0  0  0  0  0  0  0  0  0
    3.3440  -11.7910    0.9480 C   0  0  0  0  0  0  0  0  0  0  0  0
    3.2760  -13.0760    1.4660 N   0  0  0  0  0  0  0  0  0  0  0  0
    3.4550  -13.4360    2.8710 C   0  0  0  0  0  3  0  0  0  0  0  0
    2.1800  -14.0070    3.5150 C   0  0  0  0  0  2  0  0  0  0  0  0
    2.3990  -14.3110    4.9970 C   0  0  0  0  0  2  0  0  0  0  0  0
    3.6040  -15.2230    5.2140 C   0  0  0  0  0  2  0  0  0  0  0  0
    4.8690  -14.6450    4.5850 C   0  0  0  0  0  2  0  0  0  0  0  0
    4.6750  -14.3410    3.1000 C   0  0  0  0  0  2  0  0  0  0  0  0
    1.5240  -16.8810   -3.3610 O   0  0  0  0  0  1  0  0  0  0  0  0
    1.8520  -15.6510   -3.3660 C   0  0  0  0  0  0  0  0  0  0  0  0
    1.8790  -14.8960   -4.3870 O   0  0  0  0  0  0  0  0  0  0  0  0
    4.6990   -7.2690    4.0230 O   0  0  0  0  0  0  0  0  0  0  0  0
    4.9100   -5.9340    3.5220 C   0  0  1  0  0  3  0  0  0  0  0  0
    5.4240   -5.8920    2.0790 C   0  0  0  0  0  0  0  0  0  0  0  0
    6.8150   -5.8060    1.8650 C   0  0  0  0  0  3  0  0  0  0  0  0
    7.3420   -5.7540    0.5740 C   0  0  0  0  0  3  0  0  0  0  0  0
    6.4840   -5.7930   -0.5160 C   0  0  0  0  0  0  0  0  0  0  0  0
    6.9870   -5.7330   -1.7560 F   0  0  0  0  0  0  0  0  0  0  0  0
    5.1100   -5.8880   -0.3380 C   0  0  0  0  0  3  0  0  0  0  0  0
    4.5810   -5.9410    0.9540 C   0  0  0  0  0  3  0  0  0  0  0  0
    3.8660   -4.8970    3.9620 C   0  0  0  0  0  0  0  0  0  0  0  0
    4.0740   -3.5340    3.6650 C   0  0  0  0  0  3  0  0  0  0  0  0
    3.1600   -2.5590    4.0710 C   0  0  0  0  0  3  0  0  0  0  0  0
    2.0370   -2.9350    4.7950 C   0  0  0  0  0  0  0  0  0  0  0  0
    1.1610   -2.0010    5.1870 F   0  0  0  0  0  0  0  0  0  0  0  0
    1.8170   -4.2640    5.1270 C   0  0  0  0  0  3  0  0  0  0  0  0
    2.7330   -5.2390    4.7220 C   0  0  0  0  0  3  0  0  0  0  0  0
  1  6  2  0  0  0  0
  1  2  1  0  0  0  0
  2  3  2  0  0  0  0
  3  4  1  0  0  0  0
  4 25  1  0  0  0  0
  5  4  2  0  0  0  0
  6  5  1  0  0  0  0
  7 12  2  0  0  0  0
  7  8  1  0  0  0  0
  8  9  2  0  0  0  0
  9 10  1  0  0  0  0
 10 15  1  0  0  0  0
 11 13  1  0  0  0  0
 11 10  2  0  0  0  0
 12 11  1  0  0  0  0
 13 14  2  0  0  0  0
 14 15  1  0  0  0  0
 14  1  1  0  0  0  0
 15 16  1  0  0  0  0
 16 21  1  0  0  0  0
 16 17  1  0  0  0  0
 17 18  1  0  0  0  0
 18 19  1  0  0  0  0
 20 19  1  0  0  0  0
 21 20  1  0  0  0  0
 23 22  1  0  0  0  0
 23  7  1  0  0  0  0
 24 23  2  0  0  0  0
 26 34  1  0  0  0  0
 26 25  1  6  0  0  0
 27 26  1  0  0  0  0
 28 27  1  0  0  0  0
 29 28  2  0  0  0  0
 30 32  2  0  0  0  0
 30 29  1  0  0  0  0
 31 30  1  0  0  0  0
 32 33  1  0  0  0  0
 33 27  2  0  0  0  0
 34 40  1  0  0  0  0
 35 34  2  0  0  0  0
 35 36  1  0  0  0  0
 36 37  2  0  0  0  0
 37 39  1  0  0  0  0
 37 38  1  0  0  0  0
 40 39  2  0  0  0  0
M  END
>  <minimizedAffinity>
-9.51604271

$$$$

 OpenBabel09142200013D

 40 45  0  0  1  0  0  0  0  0999 V2000
    5.7450   -7.1560    1.5760 C   0  0  0  0  0  0  0  0  0  0  0  0
    6.0080   -8.1750    2.4960 C   0  0  0  0  0  3  0  0  0  0  0  0
    5.1560   -9.2790    2.5820 C   0  0  0  0  0  3  0  0  0  0  0  0
    4.0210   -9.3740    1.7710 C   0  0  0  0  0  0  0  0  0  0  0  0
    3.7450   -8.3470    0.8710 C   0  0  0  0  0  3  0  0  0  0  0  0
    4.5970   -7.2390    0.7820 C   0  0  0  0  0  3  0  0  0  0  0  0
    9.7670   -2.8800    0.3870 C   0  0  0  0  0  0  0  0  0  0  0  0
    9.0970   -2.1760    1.4010 C   0  0  0  0  0  3  0  0  0  0  0  0
    8.0100   -2.7210    2.0940 C   0  0  0  0  0  3  0  0  0  0  0  0
    7.5980   -4.0130    1.7410 C   0  0  0  0  0  0  0  0  0  0  0  0
    8.2340   -4.7390    0.7370 C   0  0  0  0  0  0  0  0  0  0  0  0
    9.3240   -4.1750    0.0540 C   0  0  0  0  0  3  0  0  0  0  0  0
    7.6460   -5.9690    0.5760 N   0  0  0  0  0  0  0  0  0  0  0  0
    6.6470   -6.0140    1.4330 C   0  0  0  0  0  0  0  0  0  0  0  0
    6.6100   -4.8600    2.2000 N   0  0  0  0  0  0  0  0  0  0  0  0
    5.7170   -4.6200    3.3310 C   0  0  0  0  0  3  0  0  0  0  0  0
    6.3500   -3.7450    4.4270 C   0  0  0  0  0  2  0  0  0  0  0  0
    5.4020   -3.5740    5.6140 C   0  0  0  0  0  2  0  0  0  0  0  0
    4.0410   -3.0400    5.1760 C   0  0  0  0  0  2  0  0  0  0  0  0
    3.4100   -3.9190    4.0990 C   0  0  0  0  0  2  0  0  0  0  0  0
    4.3390   -4.0980    2.8980 C   0  0  0  0  0  2  0  0  0  0  0  0
   12.0300   -2.9180   -0.3540 O   0  0  0  0  0  1  0  0  0  0  0  0
   10.9440   -2.2540   -0.3350 C   0  0  0  0  0  0  0  0  0  0  0  0
   10.7630   -1.1150   -0.8690 O   0  0  0  0  0  0  0  0  0  0  0  0
    3.3160  -10.5320    1.9280 O   0  0  0  0  0  0  0  0  0  0  0  0
    3.9290  -11.8320    1.8320 C   0  0  1  0  0  3  0  0  0  0  0  0
    4.0290  -12.5670    3.1740 C   0  0  0  0  0  0  0  0  0  0  0  0
    2.8360  -12.8780    3.8580 C   0  0  0  0  0  3  0  0  0  0  0  0
    2.8640  -13.5360    5.0890 C   0  0  0  0  0  3  0  0  0  0  0  0
    4.0850  -13.8940    5.6440 C   0  0  0  0  0  0  0  0  0  0  0  0
    4.1140  -14.5170    6.8300 F   0  0  0  0  0  0  0  0  0  0  0  0
    5.2760  -13.6100    4.9900 C   0  0  0  0  0  3  0  0  0  0  0  0
    5.2490  -12.9520    3.7570 C   0  0  0  0  0  3  0  0  0  0  0  0
    3.5620  -12.6390    0.5780 C   0  0  0  0  0  0  0  0  0  0  0  0
    2.5780  -12.1420   -0.3040 C   0  0  0  0  0  3  0  0  0  0  0  0
    2.1990  -12.8600   -1.4410 C   0  0  0  0  0  3  0  0  0  0  0  0
    2.7880  -14.0900   -1.6990 C   0  0  0  0  0  0  0  0  0  0  0  0
    2.4240  -14.7790   -2.7870 F   0  0  0  0  0  0  0  0  0  0  0  0
    3.7380  -14.6180   -0.8380 C   0  0  0  0  0  3  0  0  0  0  0  0
    4.1160  -13.9010    0.3010 C   0  0  0  0  0  3  0  0  0  0  0  0
  1  2  1  0  0  0  0
  2  3  2  0  0  0  0
  4 25  1  0  0  0  0
  4  3  1  0  0  0  0
  5  4  2  0  0  0  0
  6  5  1  0  0  0  0
  6  1  2  0  0  0  0
  7  8  1  0  0  0  0
  8  9  2  0  0  0  0
 10  9  1  0  0  0  0
 10 15  1  0  0  0  0
 11 10  2  0  0  0  0
 12  7  2  0  0  0  0
 12 11  1  0  0  0  0
 13 11  1  0  0  0  0
 13 14  2  0  0  0  0
 14  1  1  0  0  0  0
 14 15  1  0  0  0  0
 15 16  1  0  0  0  0
 16 17  1  0  0  0  0
 17 18  1  0  0  0  0
 19 18  1  0  0  0  0
 20 19  1  0  0  0  0
 21 16  1  0  0  0  0
 21 20  1  0  0  0  0
 22 23  1  0  0  0  0
 23  7  1  0  0  0  0
 24 23  2  0  0  0  0
 26 25  1  1  0  0  0
 26 27  1  0  0  0  0
 27 33  2  0  0  0  0
 27 28  1  0  0  0  0
 28 29  2  0  0  0  0
 29 30  1  0  0  0  0
 30 31  1  0  0  0  0
 32 30  2  0  0  0  0
 33 32  1  0  0  0  0
 34 26  1  0  0  0  0
 35 34  2  0  0  0  0
 36 35  1  0  0  0  0
 37 36  2  0  0  0  0
 37 39  1  0  0  0  0
 38 37  1  0  0  0  0
 39 40  2  0  0  0  0
 40 34  1  0  0  0  0
M  END
>  <minimizedAffinity>
-9.44250774

$$$$

 OpenBabel09142200013D

 40 45  0  0  1  0  0  0  0  0999 V2000
    4.0750  -11.1520    2.2670 C   0  0  0  0  0  0  0  0  0  0  0  0
    2.8460  -10.4960    2.1580 C   0  0  0  0  0  3  0  0  0  0  0  0
    2.7120   -9.1810    2.6120 C   0  0  0  0  0  3  0  0  0  0  0  0
    3.7900   -8.5090    3.1960 C   0  0  0  0  0  0  0  0  0  0  0  0
    5.0090   -9.1730    3.3260 C   0  0  0  0  0  3  0  0  0  0  0  0
    5.1470  -10.4910    2.8740 C   0  0  0  0  0  3  0  0  0  0  0  0
    4.7540  -16.3980   -0.5450 C   0  0  0  0  0  0  0  0  0  0  0  0
    4.9360  -16.9010    0.7540 C   0  0  0  0  0  3  0  0  0  0  0  0
    4.8690  -16.0810    1.8870 C   0  0  0  0  0  3  0  0  0  0  0  0
    4.6110  -14.7190    1.6880 C   0  0  0  0  0  0  0  0  0  0  0  0
    4.4310  -14.1830    0.4140 C   0  0  0  0  0  0  0  0  0  0  0  0
    4.5010  -15.0220   -0.7100 C   0  0  0  0  0  3  0  0  0  0  0  0
    4.1970  -12.8330    0.4810 N   0  0  0  0  0  0  0  0  0  0  0  0
    4.2550  -12.5110    1.7570 C   0  0  0  0  0  0  0  0  0  0  0  0
    4.4570  -13.6410    2.5360 N   0  0  0  0  0  0  0  0  0  0  0  0
    4.4470  -13.6790    3.9960 C   0  0  0  0  0  3  0  0  0  0  0  0
    5.7720  -13.2100    4.6220 C   0  0  0  0  0  2  0  0  0  0  0  0
    5.7340  -13.3260    6.1460 C   0  0  0  0  0  2  0  0  0  0  0  0
    4.5340  -12.5910    6.7370 C   0  0  0  0  0  2  0  0  0  0  0  0
    3.2210  -13.0690    6.1240 C   0  0  0  0  0  2  0  0  0  0  0  0
    3.2340  -12.9550    4.6000 C   0  0  0  0  0  2  0  0  0  0  0  0
    5.9490  -17.8860   -1.9690 O   0  0  0  0  0  1  0  0  0  0  0  0
    4.8300  -17.3220   -1.7440 C   0  0  0  0  0  0  0  0  0  0  0  0
    3.7750  -17.4660   -2.4380 O   0  0  0  0  0  0  0  0  0  0  0  0
    3.5250   -7.2160    3.5390 O   0  0  0  0  0  0  0  0  0  0  0  0
    4.5190   -6.1750    3.4680 C   0  0  1  0  0  3  0  0  0  0  0  0
    5.1550   -6.0250    2.0810 C   0  0  0  0  0  0  0  0  0  0  0  0
    6.5540   -5.8620    2.0000 C   0  0  0  0  0  3  0  0  0  0  0  0
    7.1890   -5.7100    0.7660 C   0  0  0  0  0  3  0  0  0  0  0  0
    6.4330   -5.7250   -0.3980 C   0  0  0  0  0  0  0  0  0  0  0  0
    7.0390   -5.5690   -1.5820 F   0  0  0  0  0  0  0  0  0  0  0  0
    5.0550   -5.8940   -0.3510 C   0  0  0  0  0  3  0  0  0  0  0  0
    4.4190   -6.0470    0.8840 C   0  0  0  0  0  3  0  0  0  0  0  0
    4.1970   -4.9060    4.2710 C   0  0  0  0  0  0  0  0  0  0  0  0
    2.9590   -4.2590    4.0790 C   0  0  0  0  0  3  0  0  0  0  0  0
    2.6410   -3.0880    4.7730 C   0  0  0  0  0  3  0  0  0  0  0  0
    3.5660   -2.5440    5.6520 C   0  0  0  0  0  0  0  0  0  0  0  0
    3.2640   -1.4210    6.3160 F   0  0  0  0  0  0  0  0  0  0  0  0
    4.8030   -3.1420    5.8430 C   0  0  0  0  0  3  0  0  0  0  0  0
    5.1220   -4.3110    5.1480 C   0  0  0  0  0  3  0  0  0  0  0  0
  1  6  1  0  0  0  0
  2  1  2  0  0  0  0
  2  3  1  0  0  0  0
  3  4  2  0  0  0  0
  4  5  1  0  0  0  0
  4 25  1  0  0  0  0
  6  5  2  0  0  0  0
  7  8  1  0  0  0  0
  8  9  2  0  0  0  0
 10  9  1  0  0  0  0
 10 15  1  0  0  0  0
 11 13  1  0  0  0  0
 11 10  2  0  0  0  0
 12  7  2  0  0  0  0
 12 11  1  0  0  0  0
 13 14  2  0  0  0  0
 14  1  1  0  0  0  0
 14 15  1  0  0  0  0
 15 16  1  0  0  0  0
 16 21  1  0  0  0  0
 16 17  1  0  0  0  0
 17 18  1  0  0  0  0
 18 19  1  0  0  0  0
 20 19  1  0  0  0  0
 21 20  1  0  0  0  0
 22 23  1  0  0  0  0
 23  7  1  0  0  0  0
 24 23  2  0  0  0  0
 26 25  1  6  0  0  0
 26 34  1  0  0  0  0
 27 26  1  0  0  0  0
 28 27  1  0  0  0  0
 29 28  2  0  0  0  0
 30 32  2  0  0  0  0
 30 29  1  0  0  0  0
 31 30  1  0  0  0  0
 32 33  1  0  0  0  0
 33 27  2  0  0  0  0
 34 40  1  0  0  0  0
 35 34  2  0  0  0  0
 35 36  1  0  0  0  0
 36 37  2  0  0  0  0
 37 39  1  0  0  0  0
 37 38  1  0  0  0  0
 40 39  2  0  0  0  0
M  END
>  <minimizedAffinity>
-9.41825581

$$$$
