
 OpenBabel09122222393D

 39 44  0  0  0  0  0  0  0  0999 V2000
    3.8020   -3.2110    5.5980 C   0  0  0  0  0  0  0  0  0  0  0  0
    4.8790   -2.8310    6.4050 C   0  0  0  0  0  3  0  0  0  0  0  0
    4.7040   -1.8660    7.3980 C   0  0  0  0  0  3  0  0  0  0  0  0
    3.4630   -1.2500    7.5870 C   0  0  0  0  0  0  0  0  0  0  0  0
    2.3870   -1.6240    6.7850 C   0  0  0  0  0  3  0  0  0  0  0  0
    2.5600   -2.5930    5.7900 C   0  0  0  0  0  3  0  0  0  0  0  0
    5.0090   -6.6030    0.8160 C   0  0  0  0  0  0  0  0  0  0  0  0
    4.4520   -7.6360    1.5880 C   0  0  0  0  0  3  0  0  0  0  0  0
    3.9360   -7.4130    2.8720 C   0  0  0  0  0  3  0  0  0  0  0  0
    3.9940   -6.1070    3.3760 C   0  0  0  0  0  0  0  0  0  0  0  0
    4.5430   -5.0600    2.6400 C   0  0  0  0  0  0  0  0  0  0  0  0
    5.0500   -5.3020    1.3530 C   0  0  0  0  0  3  0  0  0  0  0  0
    4.4960   -3.8870    3.3490 N   0  0  0  0  0  0  0  0  0  0  0  0
    3.9680   -4.1840    4.5200 C   0  0  0  0  0  0  0  0  0  0  0  0
    3.5870   -5.5180    4.5570 N   0  0  0  0  0  0  0  0  0  0  0  0
    2.8430   -6.1620    5.6370 C   0  0  0  0  0  3  0  0  0  0  0  0
    1.3510   -6.3520    5.3120 C   0  0  0  0  0  2  0  0  0  0  0  0
    0.6030   -6.9780    6.4880 C   0  0  0  0  0  2  0  0  0  0  0  0
    1.2560   -8.2810    6.9420 C   0  0  0  0  0  2  0  0  0  0  0  0
    2.7320   -8.0850    7.2780 C   0  0  0  0  0  2  0  0  0  0  0  0
    3.4990   -7.4680    6.1110 C   0  0  0  0  0  2  0  0  0  0  0  0
    5.3740   -8.0560   -1.0340 O   0  0  0  0  0  1  0  0  0  0  0  0
    5.5560   -6.8850   -0.5690 C   0  0  0  0  0  0  0  0  0  0  0  0
    6.1560   -5.9370   -1.1640 O   0  0  0  0  0  0  0  0  0  0  0  0
    3.4590   -0.2890    8.5570 O   0  0  0  0  0  0  0  0  0  0  0  0
    2.9310   -0.5950    9.8450 C   0  0  0  0  0  2  0  0  0  0  0  0
    3.9110   -1.1880   10.8470 C   0  0  0  0  0  0  0  0  0  0  0  0
    4.8740   -0.3120   11.3960 C   0  0  0  0  0  3  0  0  0  0  0  0
    5.8090   -0.7630   12.3240 C   0  0  0  0  0  0  0  0  0  0  0  0
    6.9680    0.3320   12.9700 Cl  0  0  0  0  0  0  0  0  0  0  0  0
    5.8050   -2.0870   12.7340 C   0  0  0  0  0  3  0  0  0  0  0  0
    4.8480   -2.9620   12.2180 C   0  0  0  0  0  3  0  0  0  0  0  0
    3.8820   -2.5340   11.2820 C   0  0  0  0  0  0  0  0  0  0  0  0
    2.9010   -3.5200   10.8100 C   0  0  0  0  0  0  0  0  0  0  0  0
    3.0990   -4.2310    9.6200 C   0  0  0  0  0  3  0  0  0  0  0  0
    2.1600   -5.1710    9.2020 C   0  0  0  0  0  3  0  0  0  0  0  0
    1.0470   -5.3830    9.9970 C   0  0  0  0  0  3  0  0  0  0  0  0
    0.8170   -4.7340   11.1590 N   0  0  0  0  0  0  0  0  0  0  0  0
    1.7460   -3.8210   11.5320 C   0  0  0  0  0  3  0  0  0  0  0  0
  1  6  2  0  0  0  0
  1  2  1  0  0  0  0
  2  3  2  0  0  0  0
  3  4  1  0  0  0  0
  4 25  1  0  0  0  0
  5  4  2  0  0  0  0
  6  5  1  0  0  0  0
  7 12  2  0  0  0  0
  7  8  1  0  0  0  0
  8  9  2  0  0  0  0
  9 10  1  0  0  0  0
 10 15  1  0  0  0  0
 11 13  1  0  0  0  0
 11 10  2  0  0  0  0
 12 11  1  0  0  0  0
 13 14  2  0  0  0  0
 14 15  1  0  0  0  0
 14  1  1  0  0  0  0
 15 16  1  0  0  0  0
 16 21  1  0  0  0  0
 17 16  1  0  0  0  0
 17 18  1  0  0  0  0
 18 19  1  0  0  0  0
 19 20  1  0  0  0  0
 21 20  1  0  0  0  0
 22 23  1  0  0  0  0
 23  7  1  0  0  0  0
 24 23  2  0  0  0  0
 25 26  1  0  0  0  0
 26 27  1  0  0  0  0
 27 33  2  0  0  0  0
 27 28  1  0  0  0  0
 28 29  2  0  0  0  0
 29 31  1  0  0  0  0
 29 30  1  0  0  0  0
 32 31  2  0  0  0  0
 33 32  1  0  0  0  0
 34 33  1  0  0  0  0
 34 39  1  0  0  0  0
 35 34  2  0  0  0  0
 36 35  1  0  0  0  0
 36 37  2  0  0  0  0
 37 38  1  0  0  0  0
 38 39  2  0  0  0  0
M  END
>  <minimizedAffinity>
-8.15189362

$$$$
