
 OpenBabel09122222393D

 39 44  0  0  0  0  0  0  0  0999 V2000
    3.8740   -3.0750    5.5010 C   0  0  0  0  0  0  0  0  0  0  0  0
    2.6640   -2.4040    5.7020 C   0  0  0  0  0  3  0  0  0  0  0  0
    2.5490   -1.4550    6.7190 C   0  0  0  0  0  3  0  0  0  0  0  0
    3.6280   -1.1780    7.5640 C   0  0  0  0  0  0  0  0  0  0  0  0
    4.8350   -1.8450    7.3690 C   0  0  0  0  0  3  0  0  0  0  0  0
    4.9530   -2.7950    6.3480 C   0  0  0  0  0  3  0  0  0  0  0  0
    4.9580   -6.7350    0.8900 C   0  0  0  0  0  0  0  0  0  0  0  0
    4.3980   -7.7160    1.7240 C   0  0  0  0  0  3  0  0  0  0  0  0
    3.9040   -7.4180    3.0010 C   0  0  0  0  0  3  0  0  0  0  0  0
    3.9890   -6.0880    3.4340 C   0  0  0  0  0  0  0  0  0  0  0  0
    4.5420   -5.0900    2.6350 C   0  0  0  0  0  0  0  0  0  0  0  0
    5.0270   -5.4080    1.3560 C   0  0  0  0  0  3  0  0  0  0  0  0
    4.5230   -3.8810    3.2810 N   0  0  0  0  0  0  0  0  0  0  0  0
    4.0080   -4.1070    4.4740 C   0  0  0  0  0  0  0  0  0  0  0  0
    3.6080   -5.4310    4.5880 N   0  0  0  0  0  0  0  0  0  0  0  0
    2.8710   -6.0050    5.7100 C   0  0  0  0  0  3  0  0  0  0  0  0
    1.4420   -6.4360    5.3370 C   0  0  0  0  0  2  0  0  0  0  0  0
    0.6910   -6.9800    6.5510 C   0  0  0  0  0  2  0  0  0  0  0  0
    1.4640   -8.1050    7.2350 C   0  0  0  0  0  2  0  0  0  0  0  0
    2.8760   -7.6680    7.6180 C   0  0  0  0  0  2  0  0  0  0  0  0
    3.6460   -7.1290    6.4140 C   0  0  0  0  0  2  0  0  0  0  0  0
    6.2070   -6.2350   -1.0740 O   0  0  0  0  0  0  0  0  0  0  0  0
    5.4800   -7.0980   -0.4860 C   0  0  0  0  0  0  0  0  0  0  0  0
    5.1540   -8.2340   -0.9530 O   0  0  0  0  0  1  0  0  0  0  0  0
    3.3490   -0.2700    8.5440 O   0  0  0  0  0  0  0  0  0  0  0  0
    2.4830   -0.6370    9.6160 C   0  0  0  0  0  2  0  0  0  0  0  0
    2.7700   -1.9750   10.2810 C   0  0  0  0  0  0  0  0  0  0  0  0
    1.9120   -3.0490    9.9550 C   0  0  0  0  0  3  0  0  0  0  0  0
    2.0990   -4.3130   10.5100 C   0  0  0  0  0  0  0  0  0  0  0  0
    1.0340   -5.5960   10.0910 Cl  0  0  0  0  0  0  0  0  0  0  0  0
    3.1440   -4.5400   11.3930 C   0  0  0  0  0  3  0  0  0  0  0  0
    4.0140   -3.4960   11.7100 C   0  0  0  0  0  3  0  0  0  0  0  0
    3.8550   -2.2060   11.1580 C   0  0  0  0  0  0  0  0  0  0  0  0
    4.8320   -1.1760   11.5340 C   0  0  0  0  0  0  0  0  0  0  0  0
    6.0250   -1.0100   10.8210 C   0  0  0  0  0  3  0  0  0  0  0  0
    6.9280   -0.0150   11.1890 C   0  0  0  0  0  3  0  0  0  0  0  0
    6.6050    0.7990   12.2610 C   0  0  0  0  0  3  0  0  0  0  0  0
    5.4620    0.6890   12.9720 N   0  0  0  0  0  0  0  0  0  0  0  0
    4.6100   -0.2950   12.5920 C   0  0  0  0  0  3  0  0  0  0  0  0
  1  2  2  0  0  0  0
  1  6  1  0  0  0  0
  2  3  1  0  0  0  0
  3  4  2  0  0  0  0
  4 25  1  0  0  0  0
  5  4  1  0  0  0  0
  6  5  2  0  0  0  0
  7 12  2  0  0  0  0
  7  8  1  0  0  0  0
  8  9  2  0  0  0  0
  9 10  1  0  0  0  0
 10 15  1  0  0  0  0
 11 13  1  0  0  0  0
 11 10  2  0  0  0  0
 12 11  1  0  0  0  0
 13 14  2  0  0  0  0
 14 15  1  0  0  0  0
 14  1  1  0  0  0  0
 15 16  1  0  0  0  0
 16 21  1  0  0  0  0
 17 16  1  0  0  0  0
 17 18  1  0  0  0  0
 18 19  1  0  0  0  0
 19 20  1  0  0  0  0
 21 20  1  0  0  0  0
 22 23  2  0  0  0  0
 23  7  1  0  0  0  0
 24 23  1  0  0  0  0
 25 26  1  0  0  0  0
 26 27  1  0  0  0  0
 27 33  1  0  0  0  0
 28 27  2  0  0  0  0
 28 29  1  0  0  0  0
 29 31  2  0  0  0  0
 30 29  1  0  0  0  0
 31 32  1  0  0  0  0
 33 34  1  0  0  0  0
 33 32  2  0  0  0  0
 34 39  1  0  0  0  0
 35 36  1  0  0  0  0
 35 34  2  0  0  0  0
 36 37  2  0  0  0  0
 37 38  1  0  0  0  0
 39 38  2  0  0  0  0
M  END
>  <minimizedAffinity>
-8.09602356

$$$$
