
 OpenBabel09122222393D

 39 44  0  0  0  0  0  0  0  0999 V2000
    9.3950   -2.2930    3.4770 C   0  0  0  0  0  0  0  0  0  0  0  0
   10.0520   -2.7790    4.6110 C   0  0  0  0  0  3  0  0  0  0  0  0
   10.6410   -1.8920    5.5140 C   0  0  0  0  0  3  0  0  0  0  0  0
   10.6070   -0.5130    5.2880 C   0  0  0  0  0  0  0  0  0  0  0  0
    9.9550   -0.0240    4.1580 C   0  0  0  0  0  3  0  0  0  0  0  0
    9.3600   -0.9110    3.2530 C   0  0  0  0  0  3  0  0  0  0  0  0
    6.3340   -6.0950    0.0110 C   0  0  0  0  0  0  0  0  0  0  0  0
    7.2170   -5.6630   -0.9920 C   0  0  0  0  0  3  0  0  0  0  0  0
    8.2380   -4.7380   -0.7410 C   0  0  0  0  0  3  0  0  0  0  0  0
    8.3560   -4.2420    0.5630 C   0  0  0  0  0  0  0  0  0  0  0  0
    7.4970   -4.6440    1.5820 C   0  0  0  0  0  0  0  0  0  0  0  0
    6.4820   -5.5760    1.3120 C   0  0  0  0  0  3  0  0  0  0  0  0
    7.8050   -4.0120    2.7600 N   0  0  0  0  0  0  0  0  0  0  0  0
    8.8090   -3.2000    2.4920 C   0  0  0  0  0  0  0  0  0  0  0  0
    9.2210   -3.3550    1.1760 N   0  0  0  0  0  0  0  0  0  0  0  0
   10.3910   -2.7250    0.5690 C   0  0  0  0  0  3  0  0  0  0  0  0
   11.4360   -3.7420    0.0780 C   0  0  0  0  0  2  0  0  0  0  0  0
   12.6650   -3.0390   -0.4990 C   0  0  0  0  0  2  0  0  0  0  0  0
   12.2840   -2.0420   -1.5900 C   0  0  0  0  0  2  0  0  0  0  0  0
   11.2590   -1.0260   -1.0930 C   0  0  0  0  0  2  0  0  0  0  0  0
   10.0180   -1.7090   -0.5210 C   0  0  0  0  0  2  0  0  0  0  0  0
    5.4910   -7.9600   -1.2050 O   0  0  0  0  0  0  0  0  0  0  0  0
    5.2420   -7.0990   -0.3010 C   0  0  0  0  0  0  0  0  0  0  0  0
    4.1600   -7.0090    0.3580 O   0  0  0  0  0  1  0  0  0  0  0  0
   11.2720    0.2220    6.2260 O   0  0  0  0  0  0  0  0  0  0  0  0
   10.8190    0.2100    7.5780 C   0  0  0  0  0  2  0  0  0  0  0  0
   11.8600   -0.1450    8.6300 C   0  0  0  0  0  0  0  0  0  0  0  0
   13.0850    0.5570    8.5800 C   0  0  0  0  0  3  0  0  0  0  0  0
   14.0960    0.3040    9.5040 C   0  0  0  0  0  0  0  0  0  0  0  0
   15.5750    1.1760    9.4130 Cl  0  0  0  0  0  0  0  0  0  0  0  0
   13.9110   -0.6430   10.5010 C   0  0  0  0  0  3  0  0  0  0  0  0
   12.6990   -1.3310   10.5770 C   0  0  0  0  0  3  0  0  0  0  0  0
   11.6530   -1.0920    9.6600 C   0  0  0  0  0  0  0  0  0  0  0  0
   10.4060   -1.8480    9.8310 C   0  0  0  0  0  0  0  0  0  0  0  0
   10.2560   -3.1340    9.2970 C   0  0  0  0  0  3  0  0  0  0  0  0
    9.0670   -3.8360    9.4860 C   0  0  0  0  0  3  0  0  0  0  0  0
    8.0590   -3.2330   10.2180 C   0  0  0  0  0  3  0  0  0  0  0  0
    8.1600   -2.0020   10.7650 N   0  0  0  0  0  0  0  0  0  0  0  0
    9.3260   -1.3440   10.5550 C   0  0  0  0  0  3  0  0  0  0  0  0
  1  2  1  0  0  0  0
  2  3  2  0  0  0  0
  4  3  1  0  0  0  0
  4 25  1  0  0  0  0
  5  4  2  0  0  0  0
  6  1  2  0  0  0  0
  6  5  1  0  0  0  0
  7 12  1  0  0  0  0
  8  9  1  0  0  0  0
  8  7  2  0  0  0  0
  9 10  2  0  0  0  0
 10 15  1  0  0  0  0
 10 11  1  0  0  0  0
 11 13  1  0  0  0  0
 12 11  2  0  0  0  0
 14 13  2  0  0  0  0
 14  1  1  0  0  0  0
 15 14  1  0  0  0  0
 16 15  1  0  0  0  0
 17 16  1  0  0  0  0
 18 17  1  0  0  0  0
 19 20  1  0  0  0  0
 19 18  1  0  0  0  0
 20 21  1  0  0  0  0
 21 16  1  0  0  0  0
 22 23  2  0  0  0  0
 23  7  1  0  0  0  0
 23 24  1  0  0  0  0
 25 26  1  0  0  0  0
 26 27  1  0  0  0  0
 27 33  1  0  0  0  0
 28 27  2  0  0  0  0
 28 29  1  0  0  0  0
 29 31  2  0  0  0  0
 30 29  1  0  0  0  0
 31 32  1  0  0  0  0
 33 34  1  0  0  0  0
 33 32  2  0  0  0  0
 34 39  1  0  0  0  0
 35 36  1  0  0  0  0
 35 34  2  0  0  0  0
 36 37  2  0  0  0  0
 37 38  1  0  0  0  0
 39 38  2  0  0  0  0
M  END
>  <minimizedAffinity>
-8.08368492

$$$$
