
 OpenBabel09122222393D

 39 44  0  0  0  0  0  0  0  0999 V2000
    3.8330   -2.9950    5.6580 C   0  0  0  0  0  0  0  0  0  0  0  0
    2.5430   -2.5960    6.0200 C   0  0  0  0  0  3  0  0  0  0  0  0
    2.3590   -1.6620    7.0410 C   0  0  0  0  0  3  0  0  0  0  0  0
    3.4520   -1.1310    7.7310 C   0  0  0  0  0  0  0  0  0  0  0  0
    4.7400   -1.5270    7.3750 C   0  0  0  0  0  3  0  0  0  0  0  0
    4.9270   -2.4610    6.3490 C   0  0  0  0  0  3  0  0  0  0  0  0
    5.1220   -6.4890    0.9710 C   0  0  0  0  0  0  0  0  0  0  0  0
    4.8200   -7.5380    1.8550 C   0  0  0  0  0  3  0  0  0  0  0  0
    4.3990   -7.3090    3.1710 C   0  0  0  0  0  3  0  0  0  0  0  0
    4.2890   -5.9770    3.5930 C   0  0  0  0  0  0  0  0  0  0  0  0
    4.5840   -4.9120    2.7450 C   0  0  0  0  0  0  0  0  0  0  0  0
    4.9990   -5.1630    1.4280 C   0  0  0  0  0  3  0  0  0  0  0  0
    4.4110   -3.7130    3.3890 N   0  0  0  0  0  0  0  0  0  0  0  0
    4.0540   -4.0050    4.6240 C   0  0  0  0  0  0  0  0  0  0  0  0
    3.9040   -5.3760    4.7760 N   0  0  0  0  0  0  0  0  0  0  0  0
    3.3840   -6.0510    5.9620 C   0  0  0  0  0  3  0  0  0  0  0  0
    4.0430   -5.5710    7.2670 C   0  0  0  0  0  2  0  0  0  0  0  0
    3.5080   -6.3410    8.4740 C   0  0  0  0  0  2  0  0  0  0  0  0
    1.9850   -6.2810    8.5510 C   0  0  0  0  0  2  0  0  0  0  0  0
    1.3350   -6.7730    7.2610 C   0  0  0  0  0  2  0  0  0  0  0  0
    1.8500   -6.0090    6.0420 C   0  0  0  0  0  2  0  0  0  0  0  0
    6.2820   -5.8920   -1.0200 O   0  0  0  0  0  0  0  0  0  0  0  0
    5.5740   -6.7800   -0.4460 C   0  0  0  0  0  0  0  0  0  0  0  0
    5.2120   -7.8850   -0.9590 O   0  0  0  0  0  1  0  0  0  0  0  0
    3.1140   -0.2740    8.7380 O   0  0  0  0  0  0  0  0  0  0  0  0
    3.6650   -0.4670   10.0390 C   0  0  0  0  0  2  0  0  0  0  0  0
    3.5450   -1.8700   10.6150 C   0  0  0  0  0  0  0  0  0  0  0  0
    2.2400   -2.3900   10.7650 C   0  0  0  0  0  3  0  0  0  0  0  0
    2.0300   -3.6680   11.2800 C   0  0  0  0  0  0  0  0  0  0  0  0
    0.4280   -4.2680   11.4500 Cl  0  0  0  0  0  0  0  0  0  0  0  0
    3.1090   -4.4580   11.6500 C   0  0  0  0  0  3  0  0  0  0  0  0
    4.4050   -3.9680   11.4890 C   0  0  0  0  0  3  0  0  0  0  0  0
    4.6510   -2.6810   10.9640 C   0  0  0  0  0  0  0  0  0  0  0  0
    6.0490   -2.2580   10.8120 C   0  0  0  0  0  0  0  0  0  0  0  0
    6.8720   -2.8100    9.8220 C   0  0  0  0  0  3  0  0  0  0  0  0
    8.1910   -2.3810    9.6900 C   0  0  0  0  0  3  0  0  0  0  0  0
    8.6500   -1.3980   10.5490 C   0  0  0  0  0  3  0  0  0  0  0  0
    7.8930   -0.8250   11.5100 N   0  0  0  0  0  0  0  0  0  0  0  0
    6.6170   -1.2720   11.6170 C   0  0  0  0  0  3  0  0  0  0  0  0
  1  2  2  0  0  0  0
  1  6  1  0  0  0  0
  2  3  1  0  0  0  0
  3  4  2  0  0  0  0
  4 25  1  0  0  0  0
  5  4  1  0  0  0  0
  6  5  2  0  0  0  0
  7 12  2  0  0  0  0
  7  8  1  0  0  0  0
  8  9  2  0  0  0  0
  9 10  1  0  0  0  0
 10 15  1  0  0  0  0
 11 13  1  0  0  0  0
 11 10  2  0  0  0  0
 12 11  1  0  0  0  0
 13 14  2  0  0  0  0
 14 15  1  0  0  0  0
 14  1  1  0  0  0  0
 15 16  1  0  0  0  0
 16 21  1  0  0  0  0
 16 17  1  0  0  0  0
 17 18  1  0  0  0  0
 18 19  1  0  0  0  0
 20 19  1  0  0  0  0
 21 20  1  0  0  0  0
 22 23  2  0  0  0  0
 23  7  1  0  0  0  0
 24 23  1  0  0  0  0
 25 26  1  0  0  0  0
 26 27  1  0  0  0  0
 27 28  2  0  0  0  0
 27 33  1  0  0  0  0
 28 29  1  0  0  0  0
 29 30  1  0  0  0  0
 29 31  2  0  0  0  0
 32 31  1  0  0  0  0
 33 32  2  0  0  0  0
 34 33  1  0  0  0  0
 34 39  1  0  0  0  0
 35 34  2  0  0  0  0
 36 35  1  0  0  0  0
 36 37  2  0  0  0  0
 37 38  1  0  0  0  0
 38 39  2  0  0  0  0
M  END
>  <minimizedAffinity>
-7.91017246

$$$$
