
 OpenBabel09122221023D

 39 44  0  0  0  0  0  0  0  0999 V2000
    9.4520   -2.4310    3.4680 C   0  0  0  0  0  0  0  0  0  0  0  0
    9.4230   -1.0380    3.3580 C   0  0  0  0  0  3  0  0  0  0  0  0
    9.9790   -0.2440    4.3610 C   0  0  0  0  0  3  0  0  0  0  0  0
   10.5500   -0.8220    5.4990 C   0  0  0  0  0  0  0  0  0  0  0  0
   10.5800   -2.2100    5.6150 C   0  0  0  0  0  3  0  0  0  0  0  0
   10.0250   -3.0090    4.6070 C   0  0  0  0  0  3  0  0  0  0  0  0
    6.2700   -6.0210   -0.1120 C   0  0  0  0  0  0  0  0  0  0  0  0
    7.1590   -5.5790   -1.1050 C   0  0  0  0  0  3  0  0  0  0  0  0
    8.2080   -4.6920   -0.8270 C   0  0  0  0  0  3  0  0  0  0  0  0
    8.3460   -4.2460    0.4930 C   0  0  0  0  0  0  0  0  0  0  0  0
    7.4800   -4.6600    1.5030 C   0  0  0  0  0  0  0  0  0  0  0  0
    6.4390   -5.5530    1.2060 C   0  0  0  0  0  3  0  0  0  0  0  0
    7.8110   -4.0790    2.7000 N   0  0  0  0  0  0  0  0  0  0  0  0
    8.8360   -3.2860    2.4550 C   0  0  0  0  0  0  0  0  0  0  0  0
    9.2370   -3.4050    1.1320 N   0  0  0  0  0  0  0  0  0  0  0  0
   10.4220   -2.7870    0.5410 C   0  0  0  0  0  3  0  0  0  0  0  0
   11.4510   -3.8140    0.0390 C   0  0  0  0  0  2  0  0  0  0  0  0
   12.6950   -3.1250   -0.5200 C   0  0  0  0  0  2  0  0  0  0  0  0
   12.3380   -2.1040   -1.5970 C   0  0  0  0  0  2  0  0  0  0  0  0
   11.3290   -1.0780   -1.0890 C   0  0  0  0  0  2  0  0  0  0  0  0
   10.0730   -1.7480   -0.5340 C   0  0  0  0  0  2  0  0  0  0  0  0
    5.4580   -8.0100   -1.1380 O   0  0  0  0  0  0  0  0  0  0  0  0
    5.1490   -6.9830   -0.4530 C   0  0  0  0  0  0  0  0  0  0  0  0
    3.9840   -6.6950   -0.0340 O   0  0  0  0  0  1  0  0  0  0  0  0
   11.0020    0.0800    6.4170 O   0  0  0  0  0  0  0  0  0  0  0  0
   10.9510   -0.2450    7.8050 C   0  0  0  0  0  2  0  0  0  0  0  0
    9.9080    0.4960    8.6290 C   0  0  0  0  0  0  0  0  0  0  0  0
   10.2980    1.7310    9.1920 C   0  0  0  0  0  3  0  0  0  0  0  0
    9.4110    2.4840    9.9580 C   0  0  0  0  0  0  0  0  0  0  0  0
    9.9200    3.9830   10.6300 Cl  0  0  0  0  0  0  0  0  0  0  0  0
    8.1170    2.0320   10.1740 C   0  0  0  0  0  3  0  0  0  0  0  0
    7.7090    0.8230    9.6080 C   0  0  0  0  0  3  0  0  0  0  0  0
    8.5820    0.0420    8.8220 C   0  0  0  0  0  0  0  0  0  0  0  0
    8.0580   -1.2050    8.2490 C   0  0  0  0  0  0  0  0  0  0  0  0
    7.2690   -1.1990    7.0930 C   0  0  0  0  0  3  0  0  0  0  0  0
    6.7960   -2.3970    6.5620 C   0  0  0  0  0  3  0  0  0  0  0  0
    7.1370   -3.5760    7.2010 C   0  0  0  0  0  3  0  0  0  0  0  0
    7.9060   -3.6370    8.3100 N   0  0  0  0  0  0  0  0  0  0  0  0
    8.3420   -2.4520    8.8040 C   0  0  0  0  0  3  0  0  0  0  0  0
  1  6  1  0  0  0  0
  2  1  2  0  0  0  0
  2  3  1  0  0  0  0
  3  4  2  0  0  0  0
  4  5  1  0  0  0  0
  4 25  1  0  0  0  0
  6  5  2  0  0  0  0
  7 12  1  0  0  0  0
  8  9  1  0  0  0  0
  8  7  2  0  0  0  0
  9 10  2  0  0  0  0
 10 15  1  0  0  0  0
 10 11  1  0  0  0  0
 11 13  1  0  0  0  0
 12 11  2  0  0  0  0
 14 13  2  0  0  0  0
 14  1  1  0  0  0  0
 15 14  1  0  0  0  0
 16 15  1  0  0  0  0
 17 16  1  0  0  0  0
 18 17  1  0  0  0  0
 19 20  1  0  0  0  0
 19 18  1  0  0  0  0
 20 21  1  0  0  0  0
 21 16  1  0  0  0  0
 22 23  2  0  0  0  0
 23  7  1  0  0  0  0
 23 24  1  0  0  0  0
 25 26  1  0  0  0  0
 26 27  1  0  0  0  0
 27 33  2  0  0  0  0
 27 28  1  0  0  0  0
 28 29  2  0  0  0  0
 29 31  1  0  0  0  0
 29 30  1  0  0  0  0
 32 31  2  0  0  0  0
 33 32  1  0  0  0  0
 34 39  1  0  0  0  0
 34 33  1  0  0  0  0
 35 34  2  0  0  0  0
 36 35  1  0  0  0  0
 36 37  2  0  0  0  0
 37 38  1  0  0  0  0
 38 39  2  0  0  0  0
M  END
>  <minimizedAffinity>
-8.39890289

$$$$

 OpenBabel09122221023D

 39 44  0  0  0  0  0  0  0  0999 V2000
    3.6650   -3.2580    5.5050 C   0  0  0  0  0  0  0  0  0  0  0  0
    4.6380   -2.9790    6.4700 C   0  0  0  0  0  3  0  0  0  0  0  0
    4.3920   -2.0250    7.4580 C   0  0  0  0  0  3  0  0  0  0  0  0
    3.1870   -1.3180    7.4860 C   0  0  0  0  0  0  0  0  0  0  0  0
    2.2140   -1.5900    6.5260 C   0  0  0  0  0  3  0  0  0  0  0  0
    2.4580   -2.5500    5.5360 C   0  0  0  0  0  3  0  0  0  0  0  0
    5.1500   -6.5530    0.7330 C   0  0  0  0  0  0  0  0  0  0  0  0
    4.6980   -7.6280    1.5160 C   0  0  0  0  0  3  0  0  0  0  0  0
    4.1730   -7.4470    2.8020 C   0  0  0  0  0  3  0  0  0  0  0  0
    4.1120   -6.1380    3.2980 C   0  0  0  0  0  0  0  0  0  0  0  0
    4.5550   -5.0490    2.5520 C   0  0  0  0  0  0  0  0  0  0  0  0
    5.0730   -5.2500    1.2630 C   0  0  0  0  0  3  0  0  0  0  0  0
    4.4030   -3.8810    3.2540 N   0  0  0  0  0  0  0  0  0  0  0  0
    3.9130   -4.2190    4.4310 C   0  0  0  0  0  0  0  0  0  0  0  0
    3.6600   -5.5820    4.4790 N   0  0  0  0  0  0  0  0  0  0  0  0
    2.9880   -6.2860    5.5690 C   0  0  0  0  0  3  0  0  0  0  0  0
    3.6230   -6.0170    6.9440 C   0  0  0  0  0  2  0  0  0  0  0  0
    2.9240   -6.8150    8.0440 C   0  0  0  0  0  2  0  0  0  0  0  0
    1.4190   -6.5620    8.0530 C   0  0  0  0  0  2  0  0  0  0  0  0
    0.7910   -6.8460    6.6910 C   0  0  0  0  0  2  0  0  0  0  0  0
    1.4700   -6.0500    5.5790 C   0  0  0  0  0  2  0  0  0  0  0  0
    5.4020   -7.8890   -1.2210 O   0  0  0  0  0  0  0  0  0  0  0  0
    5.7110   -6.7920   -0.6550 C   0  0  0  0  0  0  0  0  0  0  0  0
    6.4470   -5.8830   -1.1510 O   0  0  0  0  0  1  0  0  0  0  0  0
    3.1120   -0.3800    8.4750 O   0  0  0  0  0  0  0  0  0  0  0  0
    2.7710   -0.7840    9.8000 C   0  0  0  0  0  2  0  0  0  0  0  0
    3.8130   -0.5060   10.8740 C   0  0  0  0  0  0  0  0  0  0  0  0
    4.1850    0.8420   11.0710 C   0  0  0  0  0  3  0  0  0  0  0  0
    5.1280    1.1940   12.0350 C   0  0  0  0  0  0  0  0  0  0  0  0
    5.5580    2.8450   12.2470 Cl  0  0  0  0  0  0  0  0  0  0  0  0
    5.7140    0.2180   12.8270 C   0  0  0  0  0  3  0  0  0  0  0  0
    5.3430   -1.1160   12.6600 C   0  0  0  0  0  3  0  0  0  0  0  0
    4.3860   -1.5040   11.6980 C   0  0  0  0  0  0  0  0  0  0  0  0
    4.0430   -2.9290   11.6080 C   0  0  0  0  0  0  0  0  0  0  0  0
    4.8110   -3.8150   10.8430 C   0  0  0  0  0  3  0  0  0  0  0  0
    4.4730   -5.1650   10.7860 C   0  0  0  0  0  3  0  0  0  0  0  0
    3.3730   -5.5960   11.5080 C   0  0  0  0  0  3  0  0  0  0  0  0
    2.6080   -4.7850   12.2700 N   0  0  0  0  0  0  0  0  0  0  0  0
    2.9610   -3.4760   12.2970 C   0  0  0  0  0  3  0  0  0  0  0  0
  1  6  2  0  0  0  0
  1  2  1  0  0  0  0
  2  3  2  0  0  0  0
  3  4  1  0  0  0  0
  4 25  1  0  0  0  0
  5  4  2  0  0  0  0
  6  5  1  0  0  0  0
  7 12  2  0  0  0  0
  7  8  1  0  0  0  0
  8  9  2  0  0  0  0
  9 10  1  0  0  0  0
 10 15  1  0  0  0  0
 11 13  1  0  0  0  0
 11 10  2  0  0  0  0
 12 11  1  0  0  0  0
 13 14  2  0  0  0  0
 14 15  1  0  0  0  0
 14  1  1  0  0  0  0
 15 16  1  0  0  0  0
 16 21  1  0  0  0  0
 16 17  1  0  0  0  0
 17 18  1  0  0  0  0
 18 19  1  0  0  0  0
 20 19  1  0  0  0  0
 21 20  1  0  0  0  0
 22 23  2  0  0  0  0
 23  7  1  0  0  0  0
 24 23  1  0  0  0  0
 25 26  1  0  0  0  0
 26 27  1  0  0  0  0
 27 28  2  0  0  0  0
 27 33  1  0  0  0  0
 28 29  1  0  0  0  0
 29 30  1  0  0  0  0
 29 31  2  0  0  0  0
 32 31  1  0  0  0  0
 33 32  2  0  0  0  0
 34 33  1  0  0  0  0
 34 39  1  0  0  0  0
 35 34  2  0  0  0  0
 36 35  1  0  0  0  0
 36 37  2  0  0  0  0
 37 38  1  0  0  0  0
 38 39  2  0  0  0  0
M  END
>  <minimizedAffinity>
-8.23244762

$$$$

 OpenBabel09122221023D

 39 44  0  0  0  0  0  0  0  0999 V2000
    3.8020   -3.2110    5.5980 C   0  0  0  0  0  0  0  0  0  0  0  0
    4.8790   -2.8310    6.4050 C   0  0  0  0  0  3  0  0  0  0  0  0
    4.7040   -1.8660    7.3980 C   0  0  0  0  0  3  0  0  0  0  0  0
    3.4630   -1.2500    7.5870 C   0  0  0  0  0  0  0  0  0  0  0  0
    2.3870   -1.6240    6.7850 C   0  0  0  0  0  3  0  0  0  0  0  0
    2.5600   -2.5930    5.7900 C   0  0  0  0  0  3  0  0  0  0  0  0
    5.0090   -6.6030    0.8160 C   0  0  0  0  0  0  0  0  0  0  0  0
    4.4520   -7.6360    1.5880 C   0  0  0  0  0  3  0  0  0  0  0  0
    3.9360   -7.4130    2.8720 C   0  0  0  0  0  3  0  0  0  0  0  0
    3.9940   -6.1070    3.3760 C   0  0  0  0  0  0  0  0  0  0  0  0
    4.5430   -5.0600    2.6400 C   0  0  0  0  0  0  0  0  0  0  0  0
    5.0500   -5.3020    1.3530 C   0  0  0  0  0  3  0  0  0  0  0  0
    4.4960   -3.8870    3.3490 N   0  0  0  0  0  0  0  0  0  0  0  0
    3.9680   -4.1840    4.5200 C   0  0  0  0  0  0  0  0  0  0  0  0
    3.5870   -5.5180    4.5570 N   0  0  0  0  0  0  0  0  0  0  0  0
    2.8430   -6.1620    5.6370 C   0  0  0  0  0  3  0  0  0  0  0  0
    1.3510   -6.3520    5.3120 C   0  0  0  0  0  2  0  0  0  0  0  0
    0.6030   -6.9780    6.4880 C   0  0  0  0  0  2  0  0  0  0  0  0
    1.2560   -8.2810    6.9420 C   0  0  0  0  0  2  0  0  0  0  0  0
    2.7320   -8.0850    7.2780 C   0  0  0  0  0  2  0  0  0  0  0  0
    3.4990   -7.4680    6.1110 C   0  0  0  0  0  2  0  0  0  0  0  0
    5.3740   -8.0560   -1.0340 O   0  0  0  0  0  1  0  0  0  0  0  0
    5.5560   -6.8850   -0.5690 C   0  0  0  0  0  0  0  0  0  0  0  0
    6.1560   -5.9370   -1.1640 O   0  0  0  0  0  0  0  0  0  0  0  0
    3.4590   -0.2890    8.5570 O   0  0  0  0  0  0  0  0  0  0  0  0
    2.9310   -0.5950    9.8450 C   0  0  0  0  0  2  0  0  0  0  0  0
    3.9110   -1.1880   10.8470 C   0  0  0  0  0  0  0  0  0  0  0  0
    4.8740   -0.3120   11.3960 C   0  0  0  0  0  3  0  0  0  0  0  0
    5.8090   -0.7630   12.3240 C   0  0  0  0  0  0  0  0  0  0  0  0
    6.9680    0.3320   12.9700 Cl  0  0  0  0  0  0  0  0  0  0  0  0
    5.8050   -2.0870   12.7340 C   0  0  0  0  0  3  0  0  0  0  0  0
    4.8480   -2.9620   12.2180 C   0  0  0  0  0  3  0  0  0  0  0  0
    3.8820   -2.5340   11.2820 C   0  0  0  0  0  0  0  0  0  0  0  0
    2.9010   -3.5200   10.8100 C   0  0  0  0  0  0  0  0  0  0  0  0
    3.0990   -4.2310    9.6200 C   0  0  0  0  0  3  0  0  0  0  0  0
    2.1600   -5.1710    9.2020 C   0  0  0  0  0  3  0  0  0  0  0  0
    1.0470   -5.3830    9.9970 C   0  0  0  0  0  3  0  0  0  0  0  0
    0.8170   -4.7340   11.1590 N   0  0  0  0  0  0  0  0  0  0  0  0
    1.7460   -3.8210   11.5320 C   0  0  0  0  0  3  0  0  0  0  0  0
  1  6  2  0  0  0  0
  1  2  1  0  0  0  0
  2  3  2  0  0  0  0
  3  4  1  0  0  0  0
  4 25  1  0  0  0  0
  5  4  2  0  0  0  0
  6  5  1  0  0  0  0
  7 12  2  0  0  0  0
  7  8  1  0  0  0  0
  8  9  2  0  0  0  0
  9 10  1  0  0  0  0
 10 15  1  0  0  0  0
 11 13  1  0  0  0  0
 11 10  2  0  0  0  0
 12 11  1  0  0  0  0
 13 14  2  0  0  0  0
 14 15  1  0  0  0  0
 14  1  1  0  0  0  0
 15 16  1  0  0  0  0
 16 21  1  0  0  0  0
 17 16  1  0  0  0  0
 17 18  1  0  0  0  0
 18 19  1  0  0  0  0
 19 20  1  0  0  0  0
 21 20  1  0  0  0  0
 22 23  1  0  0  0  0
 23  7  1  0  0  0  0
 24 23  2  0  0  0  0
 25 26  1  0  0  0  0
 26 27  1  0  0  0  0
 27 33  2  0  0  0  0
 27 28  1  0  0  0  0
 28 29  2  0  0  0  0
 29 31  1  0  0  0  0
 29 30  1  0  0  0  0
 32 31  2  0  0  0  0
 33 32  1  0  0  0  0
 34 33  1  0  0  0  0
 34 39  1  0  0  0  0
 35 34  2  0  0  0  0
 36 35  1  0  0  0  0
 36 37  2  0  0  0  0
 37 38  1  0  0  0  0
 38 39  2  0  0  0  0
M  END
>  <minimizedAffinity>
-8.15189362

$$$$

 OpenBabel09122221023D

 39 44  0  0  0  0  0  0  0  0999 V2000
    3.8740   -3.0750    5.5010 C   0  0  0  0  0  0  0  0  0  0  0  0
    2.6640   -2.4040    5.7020 C   0  0  0  0  0  3  0  0  0  0  0  0
    2.5490   -1.4550    6.7190 C   0  0  0  0  0  3  0  0  0  0  0  0
    3.6280   -1.1780    7.5640 C   0  0  0  0  0  0  0  0  0  0  0  0
    4.8350   -1.8450    7.3690 C   0  0  0  0  0  3  0  0  0  0  0  0
    4.9530   -2.7950    6.3480 C   0  0  0  0  0  3  0  0  0  0  0  0
    4.9580   -6.7350    0.8900 C   0  0  0  0  0  0  0  0  0  0  0  0
    4.3980   -7.7160    1.7240 C   0  0  0  0  0  3  0  0  0  0  0  0
    3.9040   -7.4180    3.0010 C   0  0  0  0  0  3  0  0  0  0  0  0
    3.9890   -6.0880    3.4340 C   0  0  0  0  0  0  0  0  0  0  0  0
    4.5420   -5.0900    2.6350 C   0  0  0  0  0  0  0  0  0  0  0  0
    5.0270   -5.4080    1.3560 C   0  0  0  0  0  3  0  0  0  0  0  0
    4.5230   -3.8810    3.2810 N   0  0  0  0  0  0  0  0  0  0  0  0
    4.0080   -4.1070    4.4740 C   0  0  0  0  0  0  0  0  0  0  0  0
    3.6080   -5.4310    4.5880 N   0  0  0  0  0  0  0  0  0  0  0  0
    2.8710   -6.0050    5.7100 C   0  0  0  0  0  3  0  0  0  0  0  0
    1.4420   -6.4360    5.3370 C   0  0  0  0  0  2  0  0  0  0  0  0
    0.6910   -6.9800    6.5510 C   0  0  0  0  0  2  0  0  0  0  0  0
    1.4640   -8.1050    7.2350 C   0  0  0  0  0  2  0  0  0  0  0  0
    2.8760   -7.6680    7.6180 C   0  0  0  0  0  2  0  0  0  0  0  0
    3.6460   -7.1290    6.4140 C   0  0  0  0  0  2  0  0  0  0  0  0
    6.2070   -6.2350   -1.0740 O   0  0  0  0  0  0  0  0  0  0  0  0
    5.4800   -7.0980   -0.4860 C   0  0  0  0  0  0  0  0  0  0  0  0
    5.1540   -8.2340   -0.9530 O   0  0  0  0  0  1  0  0  0  0  0  0
    3.3490   -0.2700    8.5440 O   0  0  0  0  0  0  0  0  0  0  0  0
    2.4830   -0.6370    9.6160 C   0  0  0  0  0  2  0  0  0  0  0  0
    2.7700   -1.9750   10.2810 C   0  0  0  0  0  0  0  0  0  0  0  0
    1.9120   -3.0490    9.9550 C   0  0  0  0  0  3  0  0  0  0  0  0
    2.0990   -4.3130   10.5100 C   0  0  0  0  0  0  0  0  0  0  0  0
    1.0340   -5.5960   10.0910 Cl  0  0  0  0  0  0  0  0  0  0  0  0
    3.1440   -4.5400   11.3930 C   0  0  0  0  0  3  0  0  0  0  0  0
    4.0140   -3.4960   11.7100 C   0  0  0  0  0  3  0  0  0  0  0  0
    3.8550   -2.2060   11.1580 C   0  0  0  0  0  0  0  0  0  0  0  0
    4.8320   -1.1760   11.5340 C   0  0  0  0  0  0  0  0  0  0  0  0
    6.0250   -1.0100   10.8210 C   0  0  0  0  0  3  0  0  0  0  0  0
    6.9280   -0.0150   11.1890 C   0  0  0  0  0  3  0  0  0  0  0  0
    6.6050    0.7990   12.2610 C   0  0  0  0  0  3  0  0  0  0  0  0
    5.4620    0.6890   12.9720 N   0  0  0  0  0  0  0  0  0  0  0  0
    4.6100   -0.2950   12.5920 C   0  0  0  0  0  3  0  0  0  0  0  0
  1  2  2  0  0  0  0
  1  6  1  0  0  0  0
  2  3  1  0  0  0  0
  3  4  2  0  0  0  0
  4 25  1  0  0  0  0
  5  4  1  0  0  0  0
  6  5  2  0  0  0  0
  7 12  2  0  0  0  0
  7  8  1  0  0  0  0
  8  9  2  0  0  0  0
  9 10  1  0  0  0  0
 10 15  1  0  0  0  0
 11 13  1  0  0  0  0
 11 10  2  0  0  0  0
 12 11  1  0  0  0  0
 13 14  2  0  0  0  0
 14 15  1  0  0  0  0
 14  1  1  0  0  0  0
 15 16  1  0  0  0  0
 16 21  1  0  0  0  0
 17 16  1  0  0  0  0
 17 18  1  0  0  0  0
 18 19  1  0  0  0  0
 19 20  1  0  0  0  0
 21 20  1  0  0  0  0
 22 23  2  0  0  0  0
 23  7  1  0  0  0  0
 24 23  1  0  0  0  0
 25 26  1  0  0  0  0
 26 27  1  0  0  0  0
 27 33  1  0  0  0  0
 28 27  2  0  0  0  0
 28 29  1  0  0  0  0
 29 31  2  0  0  0  0
 30 29  1  0  0  0  0
 31 32  1  0  0  0  0
 33 34  1  0  0  0  0
 33 32  2  0  0  0  0
 34 39  1  0  0  0  0
 35 36  1  0  0  0  0
 35 34  2  0  0  0  0
 36 37  2  0  0  0  0
 37 38  1  0  0  0  0
 39 38  2  0  0  0  0
M  END
>  <minimizedAffinity>
-8.09602356

$$$$

 OpenBabel09122221023D

 39 44  0  0  0  0  0  0  0  0999 V2000
    9.3950   -2.2930    3.4770 C   0  0  0  0  0  0  0  0  0  0  0  0
   10.0520   -2.7790    4.6110 C   0  0  0  0  0  3  0  0  0  0  0  0
   10.6410   -1.8920    5.5140 C   0  0  0  0  0  3  0  0  0  0  0  0
   10.6070   -0.5130    5.2880 C   0  0  0  0  0  0  0  0  0  0  0  0
    9.9550   -0.0240    4.1580 C   0  0  0  0  0  3  0  0  0  0  0  0
    9.3600   -0.9110    3.2530 C   0  0  0  0  0  3  0  0  0  0  0  0
    6.3340   -6.0950    0.0110 C   0  0  0  0  0  0  0  0  0  0  0  0
    7.2170   -5.6630   -0.9920 C   0  0  0  0  0  3  0  0  0  0  0  0
    8.2380   -4.7380   -0.7410 C   0  0  0  0  0  3  0  0  0  0  0  0
    8.3560   -4.2420    0.5630 C   0  0  0  0  0  0  0  0  0  0  0  0
    7.4970   -4.6440    1.5820 C   0  0  0  0  0  0  0  0  0  0  0  0
    6.4820   -5.5760    1.3120 C   0  0  0  0  0  3  0  0  0  0  0  0
    7.8050   -4.0120    2.7600 N   0  0  0  0  0  0  0  0  0  0  0  0
    8.8090   -3.2000    2.4920 C   0  0  0  0  0  0  0  0  0  0  0  0
    9.2210   -3.3550    1.1760 N   0  0  0  0  0  0  0  0  0  0  0  0
   10.3910   -2.7250    0.5690 C   0  0  0  0  0  3  0  0  0  0  0  0
   11.4360   -3.7420    0.0780 C   0  0  0  0  0  2  0  0  0  0  0  0
   12.6650   -3.0390   -0.4990 C   0  0  0  0  0  2  0  0  0  0  0  0
   12.2840   -2.0420   -1.5900 C   0  0  0  0  0  2  0  0  0  0  0  0
   11.2590   -1.0260   -1.0930 C   0  0  0  0  0  2  0  0  0  0  0  0
   10.0180   -1.7090   -0.5210 C   0  0  0  0  0  2  0  0  0  0  0  0
    5.4910   -7.9600   -1.2050 O   0  0  0  0  0  0  0  0  0  0  0  0
    5.2420   -7.0990   -0.3010 C   0  0  0  0  0  0  0  0  0  0  0  0
    4.1600   -7.0090    0.3580 O   0  0  0  0  0  1  0  0  0  0  0  0
   11.2720    0.2220    6.2260 O   0  0  0  0  0  0  0  0  0  0  0  0
   10.8190    0.2100    7.5780 C   0  0  0  0  0  2  0  0  0  0  0  0
   11.8600   -0.1450    8.6300 C   0  0  0  0  0  0  0  0  0  0  0  0
   13.0850    0.5570    8.5800 C   0  0  0  0  0  3  0  0  0  0  0  0
   14.0960    0.3040    9.5040 C   0  0  0  0  0  0  0  0  0  0  0  0
   15.5750    1.1760    9.4130 Cl  0  0  0  0  0  0  0  0  0  0  0  0
   13.9110   -0.6430   10.5010 C   0  0  0  0  0  3  0  0  0  0  0  0
   12.6990   -1.3310   10.5770 C   0  0  0  0  0  3  0  0  0  0  0  0
   11.6530   -1.0920    9.6600 C   0  0  0  0  0  0  0  0  0  0  0  0
   10.4060   -1.8480    9.8310 C   0  0  0  0  0  0  0  0  0  0  0  0
   10.2560   -3.1340    9.2970 C   0  0  0  0  0  3  0  0  0  0  0  0
    9.0670   -3.8360    9.4860 C   0  0  0  0  0  3  0  0  0  0  0  0
    8.0590   -3.2330   10.2180 C   0  0  0  0  0  3  0  0  0  0  0  0
    8.1600   -2.0020   10.7650 N   0  0  0  0  0  0  0  0  0  0  0  0
    9.3260   -1.3440   10.5550 C   0  0  0  0  0  3  0  0  0  0  0  0
  1  2  1  0  0  0  0
  2  3  2  0  0  0  0
  4  3  1  0  0  0  0
  4 25  1  0  0  0  0
  5  4  2  0  0  0  0
  6  1  2  0  0  0  0
  6  5  1  0  0  0  0
  7 12  1  0  0  0  0
  8  9  1  0  0  0  0
  8  7  2  0  0  0  0
  9 10  2  0  0  0  0
 10 15  1  0  0  0  0
 10 11  1  0  0  0  0
 11 13  1  0  0  0  0
 12 11  2  0  0  0  0
 14 13  2  0  0  0  0
 14  1  1  0  0  0  0
 15 14  1  0  0  0  0
 16 15  1  0  0  0  0
 17 16  1  0  0  0  0
 18 17  1  0  0  0  0
 19 20  1  0  0  0  0
 19 18  1  0  0  0  0
 20 21  1  0  0  0  0
 21 16  1  0  0  0  0
 22 23  2  0  0  0  0
 23  7  1  0  0  0  0
 23 24  1  0  0  0  0
 25 26  1  0  0  0  0
 26 27  1  0  0  0  0
 27 33  1  0  0  0  0
 28 27  2  0  0  0  0
 28 29  1  0  0  0  0
 29 31  2  0  0  0  0
 30 29  1  0  0  0  0
 31 32  1  0  0  0  0
 33 34  1  0  0  0  0
 33 32  2  0  0  0  0
 34 39  1  0  0  0  0
 35 36  1  0  0  0  0
 35 34  2  0  0  0  0
 36 37  2  0  0  0  0
 37 38  1  0  0  0  0
 39 38  2  0  0  0  0
M  END
>  <minimizedAffinity>
-8.08368492

$$$$

 OpenBabel09122221023D

 39 44  0  0  0  0  0  0  0  0999 V2000
    3.8330   -2.9950    5.6580 C   0  0  0  0  0  0  0  0  0  0  0  0
    2.5430   -2.5960    6.0200 C   0  0  0  0  0  3  0  0  0  0  0  0
    2.3590   -1.6620    7.0410 C   0  0  0  0  0  3  0  0  0  0  0  0
    3.4520   -1.1310    7.7310 C   0  0  0  0  0  0  0  0  0  0  0  0
    4.7400   -1.5270    7.3750 C   0  0  0  0  0  3  0  0  0  0  0  0
    4.9270   -2.4610    6.3490 C   0  0  0  0  0  3  0  0  0  0  0  0
    5.1220   -6.4890    0.9710 C   0  0  0  0  0  0  0  0  0  0  0  0
    4.8200   -7.5380    1.8550 C   0  0  0  0  0  3  0  0  0  0  0  0
    4.3990   -7.3090    3.1710 C   0  0  0  0  0  3  0  0  0  0  0  0
    4.2890   -5.9770    3.5930 C   0  0  0  0  0  0  0  0  0  0  0  0
    4.5840   -4.9120    2.7450 C   0  0  0  0  0  0  0  0  0  0  0  0
    4.9990   -5.1630    1.4280 C   0  0  0  0  0  3  0  0  0  0  0  0
    4.4110   -3.7130    3.3890 N   0  0  0  0  0  0  0  0  0  0  0  0
    4.0540   -4.0050    4.6240 C   0  0  0  0  0  0  0  0  0  0  0  0
    3.9040   -5.3760    4.7760 N   0  0  0  0  0  0  0  0  0  0  0  0
    3.3840   -6.0510    5.9620 C   0  0  0  0  0  3  0  0  0  0  0  0
    4.0430   -5.5710    7.2670 C   0  0  0  0  0  2  0  0  0  0  0  0
    3.5080   -6.3410    8.4740 C   0  0  0  0  0  2  0  0  0  0  0  0
    1.9850   -6.2810    8.5510 C   0  0  0  0  0  2  0  0  0  0  0  0
    1.3350   -6.7730    7.2610 C   0  0  0  0  0  2  0  0  0  0  0  0
    1.8500   -6.0090    6.0420 C   0  0  0  0  0  2  0  0  0  0  0  0
    6.2820   -5.8920   -1.0200 O   0  0  0  0  0  0  0  0  0  0  0  0
    5.5740   -6.7800   -0.4460 C   0  0  0  0  0  0  0  0  0  0  0  0
    5.2120   -7.8850   -0.9590 O   0  0  0  0  0  1  0  0  0  0  0  0
    3.1140   -0.2740    8.7380 O   0  0  0  0  0  0  0  0  0  0  0  0
    3.6650   -0.4670   10.0390 C   0  0  0  0  0  2  0  0  0  0  0  0
    3.5450   -1.8700   10.6150 C   0  0  0  0  0  0  0  0  0  0  0  0
    2.2400   -2.3900   10.7650 C   0  0  0  0  0  3  0  0  0  0  0  0
    2.0300   -3.6680   11.2800 C   0  0  0  0  0  0  0  0  0  0  0  0
    0.4280   -4.2680   11.4500 Cl  0  0  0  0  0  0  0  0  0  0  0  0
    3.1090   -4.4580   11.6500 C   0  0  0  0  0  3  0  0  0  0  0  0
    4.4050   -3.9680   11.4890 C   0  0  0  0  0  3  0  0  0  0  0  0
    4.6510   -2.6810   10.9640 C   0  0  0  0  0  0  0  0  0  0  0  0
    6.0490   -2.2580   10.8120 C   0  0  0  0  0  0  0  0  0  0  0  0
    6.8720   -2.8100    9.8220 C   0  0  0  0  0  3  0  0  0  0  0  0
    8.1910   -2.3810    9.6900 C   0  0  0  0  0  3  0  0  0  0  0  0
    8.6500   -1.3980   10.5490 C   0  0  0  0  0  3  0  0  0  0  0  0
    7.8930   -0.8250   11.5100 N   0  0  0  0  0  0  0  0  0  0  0  0
    6.6170   -1.2720   11.6170 C   0  0  0  0  0  3  0  0  0  0  0  0
  1  2  2  0  0  0  0
  1  6  1  0  0  0  0
  2  3  1  0  0  0  0
  3  4  2  0  0  0  0
  4 25  1  0  0  0  0
  5  4  1  0  0  0  0
  6  5  2  0  0  0  0
  7 12  2  0  0  0  0
  7  8  1  0  0  0  0
  8  9  2  0  0  0  0
  9 10  1  0  0  0  0
 10 15  1  0  0  0  0
 11 13  1  0  0  0  0
 11 10  2  0  0  0  0
 12 11  1  0  0  0  0
 13 14  2  0  0  0  0
 14 15  1  0  0  0  0
 14  1  1  0  0  0  0
 15 16  1  0  0  0  0
 16 21  1  0  0  0  0
 16 17  1  0  0  0  0
 17 18  1  0  0  0  0
 18 19  1  0  0  0  0
 20 19  1  0  0  0  0
 21 20  1  0  0  0  0
 22 23  2  0  0  0  0
 23  7  1  0  0  0  0
 24 23  1  0  0  0  0
 25 26  1  0  0  0  0
 26 27  1  0  0  0  0
 27 28  2  0  0  0  0
 27 33  1  0  0  0  0
 28 29  1  0  0  0  0
 29 30  1  0  0  0  0
 29 31  2  0  0  0  0
 32 31  1  0  0  0  0
 33 32  2  0  0  0  0
 34 33  1  0  0  0  0
 34 39  1  0  0  0  0
 35 34  2  0  0  0  0
 36 35  1  0  0  0  0
 36 37  2  0  0  0  0
 37 38  1  0  0  0  0
 38 39  2  0  0  0  0
M  END
>  <minimizedAffinity>
-7.91017246

$$$$

 OpenBabel09122221023D

 39 44  0  0  0  0  0  0  0  0999 V2000
    7.2320   -4.5530   11.4450 C   0  0  0  0  0  0  0  0  0  0  0  0
    6.1920   -5.1850   10.7580 C   0  0  0  0  0  3  0  0  0  0  0  0
    4.8820   -4.7210   10.8880 C   0  0  0  0  0  3  0  0  0  0  0  0
    4.5850   -3.6390   11.7220 C   0  0  0  0  0  0  0  0  0  0  0  0
    5.6180   -3.0060   12.4110 C   0  0  0  0  0  3  0  0  0  0  0  0
    6.9340   -3.4680   12.2790 C   0  0  0  0  0  3  0  0  0  0  0  0
   12.5760   -7.2470   11.5940 C   0  0  0  0  0  0  0  0  0  0  0  0
   12.8920   -6.3560   10.5550 C   0  0  0  0  0  3  0  0  0  0  0  0
   11.9790   -5.4030   10.0850 C   0  0  0  0  0  3  0  0  0  0  0  0
   10.7160   -5.3630   10.6880 C   0  0  0  0  0  0  0  0  0  0  0  0
   10.3660   -6.2330   11.7170 C   0  0  0  0  0  0  0  0  0  0  0  0
   11.2960   -7.1780   12.1790 C   0  0  0  0  0  3  0  0  0  0  0  0
    9.0790   -6.0070   12.1330 N   0  0  0  0  0  0  0  0  0  0  0  0
    8.6060   -5.0460   11.3640 C   0  0  0  0  0  0  0  0  0  0  0  0
    9.5930   -4.5780   10.5090 N   0  0  0  0  0  0  0  0  0  0  0  0
    9.4730   -3.4270    9.6170 C   0  0  0  0  0  3  0  0  0  0  0  0
    8.2370   -3.4970    8.7040 C   0  0  0  0  0  2  0  0  0  0  0  0
    8.1820   -2.3020    7.7530 C   0  0  0  0  0  2  0  0  0  0  0  0
    8.2570   -0.9770    8.5070 C   0  0  0  0  0  2  0  0  0  0  0  0
    9.4930   -0.9060    9.3990 C   0  0  0  0  0  2  0  0  0  0  0  0
    9.5620   -2.0880   10.3650 C   0  0  0  0  0  2  0  0  0  0  0  0
   14.8000   -8.0870   11.7130 O   0  0  0  0  0  0  0  0  0  0  0  0
   13.5920   -8.2630   12.0750 C   0  0  0  0  0  0  0  0  0  0  0  0
   13.1680   -9.2150   12.8020 O   0  0  0  0  0  1  0  0  0  0  0  0
    3.2560   -3.3350   11.7910 O   0  0  0  0  0  0  0  0  0  0  0  0
    2.7680   -2.1700   11.1290 C   0  0  0  0  0  2  0  0  0  0  0  0
    3.2960   -1.9270    9.7230 C   0  0  0  0  0  0  0  0  0  0  0  0
    2.8080   -2.7720    8.7010 C   0  0  0  0  0  3  0  0  0  0  0  0
    3.2310   -2.6230    7.3820 C   0  0  0  0  0  0  0  0  0  0  0  0
    2.6160   -3.6700    6.1650 Cl  0  0  0  0  0  0  0  0  0  0  0  0
    4.1380   -1.6290    7.0480 C   0  0  0  0  0  3  0  0  0  0  0  0
    4.6150   -0.7730    8.0400 C   0  0  0  0  0  3  0  0  0  0  0  0
    4.2010   -0.8940    9.3840 C   0  0  0  0  0  0  0  0  0  0  0  0
    4.7400    0.0660   10.3560 C   0  0  0  0  0  0  0  0  0  0  0  0
    6.0090   -0.1080   10.9240 C   0  0  0  0  0  3  0  0  0  0  0  0
    6.5030    0.8250   11.8320 C   0  0  0  0  0  3  0  0  0  0  0  0
    5.7130    1.9190   12.1430 C   0  0  0  0  0  3  0  0  0  0  0  0
    4.4900    2.1390   11.6140 N   0  0  0  0  0  0  0  0  0  0  0  0
    4.0370    1.2070   10.7400 C   0  0  0  0  0  3  0  0  0  0  0  0
  1  6  1  0  0  0  0
  2  3  1  0  0  0  0
  2  1  2  0  0  0  0
  3  4  2  0  0  0  0
  4 25  1  0  0  0  0
  4  5  1  0  0  0  0
  6  5  2  0  0  0  0
  7 23  1  0  0  0  0
  7 12  1  0  0  0  0
  8  7  2  0  0  0  0
  9  8  1  0  0  0  0
  9 10  2  0  0  0  0
 10 11  1  0  0  0  0
 11 13  1  0  0  0  0
 11 12  2  0  0  0  0
 14  1  1  0  0  0  0
 14 13  2  0  0  0  0
 15 10  1  0  0  0  0
 15 14  1  0  0  0  0
 16 21  1  0  0  0  0
 16 15  1  0  0  0  0
 17 16  1  0  0  0  0
 18 19  1  0  0  0  0
 18 17  1  0  0  0  0
 19 20  1  0  0  0  0
 20 21  1  0  0  0  0
 22 23  2  0  0  0  0
 23 24  1  0  0  0  0
 26 25  1  0  0  0  0
 27 26  1  0  0  0  0
 28 27  2  0  0  0  0
 29 28  1  0  0  0  0
 30 29  1  0  0  0  0
 31 29  2  0  0  0  0
 31 32  1  0  0  0  0
 32 33  2  0  0  0  0
 33 27  1  0  0  0  0
 33 34  1  0  0  0  0
 34 39  2  0  0  0  0
 34 35  1  0  0  0  0
 35 36  2  0  0  0  0
 36 37  1  0  0  0  0
 38 37  2  0  0  0  0
 39 38  1  0  0  0  0
M  END
>  <minimizedAffinity>
-7.67130518

$$$$

 OpenBabel09122221023D

 39 44  0  0  0  0  0  0  0  0999 V2000
    3.4950   -3.4370    6.1430 C   0  0  0  0  0  0  0  0  0  0  0  0
    3.8190   -3.8140    7.4490 C   0  0  0  0  0  3  0  0  0  0  0  0
    3.6480   -2.9140    8.5010 C   0  0  0  0  0  3  0  0  0  0  0  0
    3.1760   -1.6190    8.2660 C   0  0  0  0  0  0  0  0  0  0  0  0
    2.8530   -1.2370    6.9650 C   0  0  0  0  0  3  0  0  0  0  0  0
    3.0210   -2.1410    5.9090 C   0  0  0  0  0  3  0  0  0  0  0  0
    4.9180   -6.5400    1.2250 C   0  0  0  0  0  0  0  0  0  0  0  0
    4.3160   -7.6130    1.9030 C   0  0  0  0  0  3  0  0  0  0  0  0
    3.7380   -7.4650    3.1710 C   0  0  0  0  0  3  0  0  0  0  0  0
    3.7790   -6.1930    3.7570 C   0  0  0  0  0  0  0  0  0  0  0  0
    4.3710   -5.1080    3.1160 C   0  0  0  0  0  0  0  0  0  0  0  0
    4.9400   -5.2750    1.8430 C   0  0  0  0  0  3  0  0  0  0  0  0
    4.2960   -3.9800    3.8930 N   0  0  0  0  0  0  0  0  0  0  0  0
    3.7080   -4.3440    5.0160 C   0  0  0  0  0  0  0  0  0  0  0  0
    3.3170   -5.6740    4.9510 N   0  0  0  0  0  0  0  0  0  0  0  0
    2.5160   -6.3760    5.9500 C   0  0  0  0  0  3  0  0  0  0  0  0
    1.1310   -6.7960    5.4280 C   0  0  0  0  0  2  0  0  0  0  0  0
    0.3100   -7.4780    6.5210 C   0  0  0  0  0  2  0  0  0  0  0  0
    1.0620   -8.6510    7.1430 C   0  0  0  0  0  2  0  0  0  0  0  0
    2.4280   -8.2260    7.6740 C   0  0  0  0  0  2  0  0  0  0  0  0
    3.2690   -7.5510    6.5940 C   0  0  0  0  0  2  0  0  0  0  0  0
    6.4250   -5.9100   -0.5060 O   0  0  0  0  0  1  0  0  0  0  0  0
    5.5310   -6.7410   -0.1470 C   0  0  0  0  0  0  0  0  0  0  0  0
    5.1090   -7.7210   -0.8370 O   0  0  0  0  0  0  0  0  0  0  0  0
    3.1130   -0.8360    9.3820 O   0  0  0  0  0  0  0  0  0  0  0  0
    4.0560   -1.0360   10.4330 C   0  0  0  0  0  2  0  0  0  0  0  0
    5.1720   -0.0060   10.5360 C   0  0  0  0  0  0  0  0  0  0  0  0
    4.9650    1.0760   11.4200 C   0  0  0  0  0  3  0  0  0  0  0  0
    5.9320    2.0640   11.5850 C   0  0  0  0  0  0  0  0  0  0  0  0
    5.6450    3.3680   12.6690 Cl  0  0  0  0  0  0  0  0  0  0  0  0
    7.1260    1.9980   10.8830 C   0  0  0  0  0  3  0  0  0  0  0  0
    7.3560    0.9250   10.0200 C   0  0  0  0  0  3  0  0  0  0  0  0
    6.3990   -0.0960    9.8380 C   0  0  0  0  0  0  0  0  0  0  0  0
    6.7370   -1.1970    8.9260 C   0  0  0  0  0  0  0  0  0  0  0  0
    6.6570   -1.0410    7.5360 C   0  0  0  0  0  3  0  0  0  0  0  0
    6.9970   -2.0960    6.6930 C   0  0  0  0  0  3  0  0  0  0  0  0
    7.4210   -3.2820    7.2660 C   0  0  0  0  0  3  0  0  0  0  0  0
    7.5290   -3.4780    8.5980 N   0  0  0  0  0  0  0  0  0  0  0  0
    7.1820   -2.4340    9.3890 C   0  0  0  0  0  3  0  0  0  0  0  0
  1  2  1  0  0  0  0
  2  3  2  0  0  0  0
  4  3  1  0  0  0  0
  4 25  1  0  0  0  0
  5  4  2  0  0  0  0
  6  1  2  0  0  0  0
  6  5  1  0  0  0  0
  7 12  2  0  0  0  0
  7  8  1  0  0  0  0
  8  9  2  0  0  0  0
  9 10  1  0  0  0  0
 10 15  1  0  0  0  0
 11 10  2  0  0  0  0
 11 13  1  0  0  0  0
 12 11  1  0  0  0  0
 13 14  2  0  0  0  0
 14  1  1  0  0  0  0
 15 14  1  0  0  0  0
 15 16  1  0  0  0  0
 16 21  1  0  0  0  0
 17 16  1  0  0  0  0
 17 18  1  0  0  0  0
 18 19  1  0  0  0  0
 19 20  1  0  0  0  0
 21 20  1  0  0  0  0
 22 23  1  0  0  0  0
 23  7  1  0  0  0  0
 24 23  2  0  0  0  0
 25 26  1  0  0  0  0
 26 27  1  0  0  0  0
 27 28  1  0  0  0  0
 28 29  2  0  0  0  0
 29 30  1  0  0  0  0
 31 29  1  0  0  0  0
 32 31  2  0  0  0  0
 33 32  1  0  0  0  0
 33 27  2  0  0  0  0
 34 39  1  0  0  0  0
 34 33  1  0  0  0  0
 35 34  2  0  0  0  0
 36 37  2  0  0  0  0
 36 35  1  0  0  0  0
 37 38  1  0  0  0  0
 38 39  2  0  0  0  0
M  END
>  <minimizedAffinity>
-7.62462139

$$$$

 OpenBabel09122221023D

 39 44  0  0  0  0  0  0  0  0999 V2000
    4.7250   -2.1290    6.8360 C   0  0  0  0  0  0  0  0  0  0  0  0
    5.5030   -3.1200    6.2300 C   0  0  0  0  0  3  0  0  0  0  0  0
    5.0150   -3.8140    5.1220 C   0  0  0  0  0  3  0  0  0  0  0  0
    3.7390   -3.5490    4.6160 C   0  0  0  0  0  0  0  0  0  0  0  0
    2.9590   -2.5640    5.2180 C   0  0  0  0  0  3  0  0  0  0  0  0
    3.4480   -1.8640    6.3280 C   0  0  0  0  0  3  0  0  0  0  0  0
    6.9750    1.3610   11.1480 C   0  0  0  0  0  0  0  0  0  0  0  0
    6.1350    0.6150   11.9900 C   0  0  0  0  0  3  0  0  0  0  0  0
    5.3360   -0.4320   11.5110 C   0  0  0  0  0  3  0  0  0  0  0  0
    5.3970   -0.7190   10.1410 C   0  0  0  0  0  0  0  0  0  0  0  0
    6.2160    0.0030    9.2760 C   0  0  0  0  0  0  0  0  0  0  0  0
    7.0130    1.0450    9.7760 C   0  0  0  0  0  3  0  0  0  0  0  0
    6.0930   -0.4570    7.9900 N   0  0  0  0  0  0  0  0  0  0  0  0
    5.1910   -1.4190    8.0260 C   0  0  0  0  0  0  0  0  0  0  0  0
    4.7860   -1.6570    9.3310 N   0  0  0  0  0  0  0  0  0  0  0  0
    3.9090   -2.7400    9.7680 C   0  0  0  0  0  3  0  0  0  0  0  0
    4.5280   -3.6080   10.8780 C   0  0  0  0  0  2  0  0  0  0  0  0
    3.5990   -4.7580   11.2640 C   0  0  0  0  0  2  0  0  0  0  0  0
    2.2080   -4.2580   11.6430 C   0  0  0  0  0  2  0  0  0  0  0  0
    1.5920   -3.4110   10.5330 C   0  0  0  0  0  2  0  0  0  0  0  0
    2.5010   -2.2490   10.1380 C   0  0  0  0  0  2  0  0  0  0  0  0
    7.3600    3.6660   11.5990 O   0  0  0  0  0  0  0  0  0  0  0  0
    7.8240    2.4860   11.7050 C   0  0  0  0  0  0  0  0  0  0  0  0
    8.9360    2.1720   12.2350 O   0  0  0  0  0  1  0  0  0  0  0  0
    3.3790   -4.3440    3.5670 O   0  0  0  0  0  0  0  0  0  0  0  0
    4.3740   -4.7800    2.6430 C   0  0  0  0  0  2  0  0  0  0  0  0
    4.7440   -6.2550    2.7030 C   0  0  0  0  0  0  0  0  0  0  0  0
    4.0030   -7.0650    3.5920 C   0  0  0  0  0  3  0  0  0  0  0  0
    4.2660   -8.4270    3.7120 C   0  0  0  0  0  0  0  0  0  0  0  0
    3.3450   -9.3830    4.8060 Cl  0  0  0  0  0  0  0  0  0  0  0  0
    5.2640   -9.0160    2.9490 C   0  0  0  0  0  3  0  0  0  0  0  0
    5.9920   -8.2340    2.0520 C   0  0  0  0  0  3  0  0  0  0  0  0
    5.7440   -6.8530    1.9010 C   0  0  0  0  0  0  0  0  0  0  0  0
    6.5460   -6.1160    0.9160 C   0  0  0  0  0  0  0  0  0  0  0  0
    7.7270   -5.4600    1.2850 C   0  0  0  0  0  3  0  0  0  0  0  0
    8.4770   -4.7800    0.3280 C   0  0  0  0  0  3  0  0  0  0  0  0
    8.0280   -4.7830   -0.9810 C   0  0  0  0  0  3  0  0  0  0  0  0
    6.9040   -5.4110   -1.3890 N   0  0  0  0  0  0  0  0  0  0  0  0
    6.1940   -6.0560   -0.4310 C   0  0  0  0  0  3  0  0  0  0  0  0
  1 14  1  0  0  0  0
  2  1  2  0  0  0  0
  3  2  1  0  0  0  0
  4  3  2  0  0  0  0
  4  5  1  0  0  0  0
  5  6  2  0  0  0  0
  6  1  1  0  0  0  0
  7 23  1  0  0  0  0
  7  8  1  0  0  0  0
  9  8  2  0  0  0  0
 10  9  1  0  0  0  0
 11 12  1  0  0  0  0
 11 10  2  0  0  0  0
 12  7  2  0  0  0  0
 13 14  2  0  0  0  0
 13 11  1  0  0  0  0
 14 15  1  0  0  0  0
 15 16  1  0  0  0  0
 15 10  1  0  0  0  0
 16 21  1  0  0  0  0
 16 17  1  0  0  0  0
 17 18  1  0  0  0  0
 18 19  1  0  0  0  0
 20 19  1  0  0  0  0
 21 20  1  0  0  0  0
 22 23  2  0  0  0  0
 23 24  1  0  0  0  0
 25  4  1  0  0  0  0
 26 27  1  0  0  0  0
 26 25  1  0  0  0  0
 27 28  1  0  0  0  0
 28 29  2  0  0  0  0
 29 30  1  0  0  0  0
 31 29  1  0  0  0  0
 32 31  2  0  0  0  0
 33 32  1  0  0  0  0
 33 27  2  0  0  0  0
 34 35  1  0  0  0  0
 34 33  1  0  0  0  0
 36 35  2  0  0  0  0
 37 36  1  0  0  0  0
 38 37  2  0  0  0  0
 38 39  1  0  0  0  0
 39 34  2  0  0  0  0
M  END
>  <minimizedAffinity>
-7.55498648

$$$$

 OpenBabel09122221023D

 39 44  0  0  0  0  0  0  0  0999 V2000
    4.9520   -4.2670    4.2400 C   0  0  0  0  0  0  0  0  0  0  0  0
    5.2100   -4.7270    5.5340 C   0  0  0  0  0  3  0  0  0  0  0  0
    4.1990   -4.7160    6.4960 C   0  0  0  0  0  3  0  0  0  0  0  0
    2.9260   -4.2250    6.1920 C   0  0  0  0  0  0  0  0  0  0  0  0
    2.6640   -3.7640    4.9030 C   0  0  0  0  0  3  0  0  0  0  0  0
    3.6770   -3.7770    3.9360 C   0  0  0  0  0  3  0  0  0  0  0  0
    9.6790   -3.5540    0.6370 C   0  0  0  0  0  0  0  0  0  0  0  0
    9.1490   -4.6650   -0.0390 C   0  0  0  0  0  3  0  0  0  0  0  0
    7.9560   -5.2820    0.3590 C   0  0  0  0  0  3  0  0  0  0  0  0
    7.2940   -4.7520    1.4740 C   0  0  0  0  0  0  0  0  0  0  0  0
    7.7920   -3.6540    2.1710 C   0  0  0  0  0  0  0  0  0  0  0  0
    8.9870   -3.0460    1.7530 C   0  0  0  0  0  3  0  0  0  0  0  0
    6.9760   -3.3330    3.2250 N   0  0  0  0  0  0  0  0  0  0  0  0
    6.0040   -4.2240    3.2250 C   0  0  0  0  0  0  0  0  0  0  0  0
    6.1230   -5.0730    2.1340 N   0  0  0  0  0  0  0  0  0  0  0  0
    5.1520   -6.0890    1.7350 C   0  0  0  0  0  3  0  0  0  0  0  0
    5.0560   -6.2650    0.2090 C   0  0  0  0  0  2  0  0  0  0  0  0
    3.9920   -7.2960   -0.1650 C   0  0  0  0  0  2  0  0  0  0  0  0
    4.2210   -8.6260    0.5480 C   0  0  0  0  0  2  0  0  0  0  0  0
    4.2990   -8.4480    2.0620 C   0  0  0  0  0  2  0  0  0  0  0  0
    5.3650   -7.4280    2.4570 C   0  0  0  0  0  2  0  0  0  0  0  0
   10.8750   -1.9190   -0.6130 O   0  0  0  0  0  0  0  0  0  0  0  0
   10.9730   -2.9140    0.1730 C   0  0  0  0  0  0  0  0  0  0  0  0
   12.0590   -3.4170    0.6010 O   0  0  0  0  0  1  0  0  0  0  0  0
    2.0600   -4.2260    7.2470 O   0  0  0  0  0  0  0  0  0  0  0  0
    2.4050   -4.9320    8.4360 C   0  0  0  0  0  2  0  0  0  0  0  0
    2.1600   -4.1980    9.7460 C   0  0  0  0  0  0  0  0  0  0  0  0
    1.2110   -4.7620   10.6280 C   0  0  0  0  0  3  0  0  0  0  0  0
    0.9240   -4.1630   11.8530 C   0  0  0  0  0  0  0  0  0  0  0  0
   -0.2380   -4.8760   12.9010 Cl  0  0  0  0  0  0  0  0  0  0  0  0
    1.5750   -2.9990   12.2310 C   0  0  0  0  0  3  0  0  0  0  0  0
    2.5300   -2.4390   11.3810 C   0  0  0  0  0  3  0  0  0  0  0  0
    2.8490   -3.0260   10.1380 C   0  0  0  0  0  0  0  0  0  0  0  0
    3.8820   -2.3780    9.3200 C   0  0  0  0  0  0  0  0  0  0  0  0
    3.5630   -1.3460    8.4290 C   0  0  0  0  0  3  0  0  0  0  0  0
    4.5650   -0.7380    7.6750 C   0  0  0  0  0  3  0  0  0  0  0  0
    5.8670   -1.1760    7.8410 C   0  0  0  0  0  3  0  0  0  0  0  0
    6.2280   -2.1570    8.6950 N   0  0  0  0  0  0  0  0  0  0  0  0
    5.2280   -2.7330    9.4070 C   0  0  0  0  0  3  0  0  0  0  0  0
  1  2  1  0  0  0  0
  2  3  2  0  0  0  0
  4  3  1  0  0  0  0
  4 25  1  0  0  0  0
  5  4  2  0  0  0  0
  6  1  2  0  0  0  0
  6  5  1  0  0  0  0
  7 12  1  0  0  0  0
  8  9  1  0  0  0  0
  8  7  2  0  0  0  0
  9 10  2  0  0  0  0
 10 15  1  0  0  0  0
 10 11  1  0  0  0  0
 11 13  1  0  0  0  0
 12 11  2  0  0  0  0
 13 14  2  0  0  0  0
 14  1  1  0  0  0  0
 15 14  1  0  0  0  0
 16 15  1  0  0  0  0
 16 21  1  0  0  0  0
 17 16  1  0  0  0  0
 18 17  1  0  0  0  0
 18 19  1  0  0  0  0
 19 20  1  0  0  0  0
 20 21  1  0  0  0  0
 22 23  2  0  0  0  0
 23 24  1  0  0  0  0
 23  7  1  0  0  0  0
 25 26  1  0  0  0  0
 26 27  1  0  0  0  0
 27 33  2  0  0  0  0
 27 28  1  0  0  0  0
 28 29  2  0  0  0  0
 29 31  1  0  0  0  0
 29 30  1  0  0  0  0
 32 31  2  0  0  0  0
 33 32  1  0  0  0  0
 34 39  1  0  0  0  0
 34 33  1  0  0  0  0
 35 34  2  0  0  0  0
 36 37  2  0  0  0  0
 36 35  1  0  0  0  0
 37 38  1  0  0  0  0
 38 39  2  0  0  0  0
M  END
>  <minimizedAffinity>
-7.53787613

$$$$
