
 OpenBabel09122222393D

 44 48  0  0  1  0  0  0  0  0999 V2000
    8.4430   -5.2950    1.1230 C   0  0  1  0  0  3  0  0  0  0  0  0
    8.7390   -6.3100    1.9030 N   0  0  0  0  0  0  0  0  0  0  0  0
    8.1090   -7.7780    1.7420 S   0  0  0  0  0  0  0  0  0  0  0  0
    8.7990   -8.5340    0.7180 O   0  0  0  0  0  0  0  0  0  0  0  0
    7.9240   -8.3500    3.0620 O   0  0  0  0  0  0  0  0  0  0  0  0
    6.4960   -7.4420    1.1130 C   0  0  0  0  0  0  0  0  0  0  0  0
    5.3810   -8.1460    1.5700 C   0  0  0  0  0  3  0  0  0  0  0  0
    4.1120   -7.7320    1.1720 C   0  0  0  0  0  0  0  0  0  0  0  0
    3.9920   -6.7220    0.2130 C   0  0  0  0  0  3  0  0  0  0  0  0
    5.1230   -6.0270   -0.2390 C   0  0  0  0  0  3  0  0  0  0  0  0
    6.3820   -6.3450    0.2630 C   0  0  0  0  0  0  0  0  0  0  0  0
    7.4600   -5.4670    0.1110 N   0  0  0  0  0  0  0  0  0  0  0  0
    9.3730   -6.1580    2.6810 H   0  0  0  0  0  0  0  0  0  0  0  0
    7.3390   -4.6670   -0.5130 H   0  0  0  0  0  0  0  0  0  0  0  0
    8.8880   -2.1640    3.1490 N   0  0  0  0  0  0  0  0  0  0  0  0
    8.9450   -3.5090    2.8600 C   0  0  0  0  0  0  0  0  0  0  0  0
    8.8660   -4.3980    3.7140 O   0  0  0  0  0  0  0  0  0  0  0  0
    8.9710   -3.9160    1.4240 C   0  0  0  0  0  0  0  0  0  0  0  0
    9.2490   -2.9910    0.4900 C   0  0  0  0  0  0  0  0  0  0  0  0
    9.4260   -1.5740    0.8550 C   0  0  0  0  0  0  0  0  0  0  0  0
    9.7100   -0.5630   -0.0750 C   0  0  0  0  0  3  0  0  0  0  0  0
    9.7380    0.7700    0.3270 C   0  0  0  0  0  3  0  0  0  0  0  0
    9.4590    1.0590    1.6460 C   0  0  0  0  0  3  0  0  0  0  0  0
    9.1710    0.1170    2.5650 N   0  0  0  0  0  0  0  0  0  0  0  0
    9.1690   -1.1770    2.1760 C   0  0  0  0  0  0  0  0  0  0  0  0
    9.2800   -3.3330   -0.8530 O   0  0  0  0  0  0  0  0  0  0  0  0
    9.9360   -2.7740   -1.3100 H   0  0  0  0  0  0  0  0  0  0  0  0
    8.4570   -1.7510    4.4860 C   0  0  0  0  0  2  0  0  0  0  0  0
    7.8210   -2.8620    5.3270 C   0  0  0  0  0  2  0  0  0  0  0  0
    5.8320   -2.6840    3.7340 C   0  0  0  0  0  1  0  0  0  0  0  0
    6.3030   -3.0480    5.1460 C   0  0  0  0  0  3  0  0  0  0  0  0
    5.9290   -4.5040    5.4400 C   0  0  0  0  0  1  0  0  0  0  0  0
    3.0110   -8.3950    1.7970 N   0  0  0  0  0  0  0  0  0  0  0  0
    2.1080   -8.2040    1.3620 H   0  0  0  0  0  0  0  0  0  0  0  0
    2.8360   -8.4930    3.4560 S   0  0  0  0  0  0  0  0  0  0  0  0
    1.4310   -8.4550    3.7740 O   0  0  0  0  0  0  0  0  0  0  0  0
    3.6920   -9.5590    3.9080 O   0  0  0  0  0  0  0  0  0  0  0  0
    3.5700   -7.0470    3.9120 N   0  0  0  0  0  0  0  0  0  0  0  0
    3.9950   -7.2210    4.8250 H   0  0  0  0  0  0  0  0  0  0  0  0
    2.6850   -5.8620    3.9780 C   0  0  0  0  0  3  0  0  0  0  0  0
    2.3840   -5.5330    5.4400 C   0  0  0  0  0  2  0  0  0  0  0  0
    1.9350   -4.0770    5.4180 C   0  0  0  0  0  2  0  0  0  0  0  0
    2.5810   -3.4600    4.1790 C   0  0  0  0  0  2  0  0  0  0  0  0
    3.3620   -4.5830    3.5020 C   0  0  0  0  0  2  0  0  0  0  0  0
  1 18  1  1  0  0  0
  1  2  1  0  0  0  0
  2 13  1  0  0  0  0
  3  2  1  0  0  0  0
  3  5  2  0  0  0  0
  4  3  2  0  0  0  0
  6  7  1  0  0  0  0
  6  3  1  0  0  0  0
  8  7  2  0  0  0  0
  8 33  1  0  0  0  0
  9  8  1  0  0  0  0
 10  9  2  0  0  0  0
 10 11  1  0  0  0  0
 11  6  2  0  0  0  0
 12 11  1  0  0  0  0
 12  1  1  0  0  0  0
 14 12  1  0  0  0  0
 15 28  1  0  0  0  0
 16 15  1  0  0  0  0
 16 17  2  0  0  0  0
 18 16  1  0  0  0  0
 19 20  1  0  0  0  0
 19 18  2  0  0  0  0
 20 25  1  0  0  0  0
 21 22  1  0  0  0  0
 21 20  2  0  0  0  0
 22 23  2  0  0  0  0
 23 24  1  0  0  0  0
 25 24  2  0  0  0  0
 25 15  1  0  0  0  0
 26 19  1  0  0  0  0
 27 26  1  0  0  0  0
 28 29  1  0  0  0  0
 30 31  1  0  0  0  0
 31 29  1  0  0  0  0
 31 32  1  0  0  0  0
 33 35  1  0  0  0  0
 34 33  1  0  0  0  0
 35 36  2  0  0  0  0
 35 37  2  0  0  0  0
 35 38  1  0  0  0  0
 38 40  1  0  0  0  0
 38 39  1  0  0  0  0
 40 41  1  0  0  0  0
 42 41  1  0  0  0  0
 43 42  1  0  0  0  0
 44 40  1  0  0  0  0
 44 43  1  0  0  0  0
M  END
>  <minimizedAffinity>
0.221739247

$$$$
