
 OpenBabel09122222393D

 23 26  0  0  0  0  0  0  0  0999 V2000
    5.0770   -8.0260    0.9070 C   0  0  0  0  0  0  0  0  0  0  0  0
    6.3610   -7.5150    0.7090 C   0  0  0  0  0  3  0  0  0  0  0  0
    6.5270   -6.3470    1.4610 C   0  0  0  0  0  0  0  0  0  0  0  0
    7.5400   -5.4710    1.6370 N   0  0  0  0  0  0  0  0  0  0  0  0
    7.0590   -4.5700    2.4930 C   0  0  0  0  0  0  0  0  0  0  0  0
    5.7380   -4.8660    2.8380 N   0  0  0  0  0  0  0  0  0  0  0  0
    5.4410   -6.0110    2.1680 C   0  0  0  0  0  0  0  0  0  0  0  0
    4.1490   -7.0440    2.0040 S   0  0  0  0  0  0  0  0  0  0  0  0
    7.8370   -3.4300    2.9650 C   0  0  0  0  0  0  0  0  0  0  0  0
    8.3420   -2.5010    2.0480 C   0  0  0  0  0  3  0  0  0  0  0  0
    9.1020   -1.4150    2.4870 C   0  0  0  0  0  3  0  0  0  0  0  0
    9.3750   -1.2620    3.8470 C   0  0  0  0  0  3  0  0  0  0  0  0
    8.9030   -2.2000    4.7630 C   0  0  0  0  0  3  0  0  0  0  0  0
    8.1450   -3.2870    4.3230 C   0  0  0  0  0  3  0  0  0  0  0  0
    4.8110   -4.1560    3.7100 C   0  0  0  0  0  3  0  0  0  0  0  0
    3.9720   -3.1070    2.9680 C   0  0  0  0  0  2  0  0  0  0  0  0
    3.1160   -2.2950    3.9390 C   0  0  0  0  0  2  0  0  0  0  0  0
    2.2550   -3.1940    4.8230 C   0  0  0  0  0  2  0  0  0  0  0  0
    3.0930   -4.2380    5.5590 C   0  0  0  0  0  2  0  0  0  0  0  0
    3.9360   -5.0630    4.5870 C   0  0  0  0  0  2  0  0  0  0  0  0
    5.0060   -9.5350   -0.9040 O   0  0  0  0  0  0  0  0  0  0  0  0
    4.5650   -9.2610    0.2560 C   0  0  0  0  0  0  0  0  0  0  0  0
    3.7240   -9.9450    0.9170 O   0  0  0  0  0  1  0  0  0  0  0  0
  1  8  1  0  0  0  0
  2  1  2  0  0  0  0
  2  3  1  0  0  0  0
  3  4  1  0  0  0  0
  3  7  2  0  0  0  0
  4  5  2  0  0  0  0
  5  6  1  0  0  0  0
  5  9  1  0  0  0  0
  6 15  1  0  0  0  0
  7  6  1  0  0  0  0
  8  7  1  0  0  0  0
  9 14  1  0  0  0  0
 10 11  1  0  0  0  0
 10  9  2  0  0  0  0
 11 12  2  0  0  0  0
 12 13  1  0  0  0  0
 14 13  2  0  0  0  0
 15 20  1  0  0  0  0
 16 15  1  0  0  0  0
 16 17  1  0  0  0  0
 17 18  1  0  0  0  0
 18 19  1  0  0  0  0
 20 19  1  0  0  0  0
 21 22  2  0  0  0  0
 22  1  1  0  0  0  0
 22 23  1  0  0  0  0
M  END
>  <minimizedAffinity>
-3.97280908

$$$$
