
 OpenBabel09122222393D

 23 26  0  0  0  0  0  0  0  0999 V2000
    8.7590   -4.1670    0.5770 C   0  0  0  0  0  0  0  0  0  0  0  0
    8.3250   -5.3930    0.0700 C   0  0  0  0  0  3  0  0  0  0  0  0
    7.2090   -5.8340    0.7890 C   0  0  0  0  0  0  0  0  0  0  0  0
    6.4120   -6.9230    0.7250 N   0  0  0  0  0  0  0  0  0  0  0  0
    5.5140   -6.7380    1.6930 C   0  0  0  0  0  0  0  0  0  0  0  0
    5.7580   -5.5440    2.3780 N   0  0  0  0  0  0  0  0  0  0  0  0
    6.8390   -4.9940    1.7630 C   0  0  0  0  0  0  0  0  0  0  0  0
    7.7720   -3.6260    1.9040 S   0  0  0  0  0  0  0  0  0  0  0  0
    4.4470   -7.6900    1.9770 C   0  0  0  0  0  0  0  0  0  0  0  0
    4.1820   -8.0690    3.2990 C   0  0  0  0  0  3  0  0  0  0  0  0
    3.1730   -8.9920    3.5810 C   0  0  0  0  0  3  0  0  0  0  0  0
    2.4340   -9.5550    2.5400 C   0  0  0  0  0  3  0  0  0  0  0  0
    2.7130   -9.2080    1.2190 C   0  0  0  0  0  3  0  0  0  0  0  0
    3.7230   -8.2860    0.9380 C   0  0  0  0  0  3  0  0  0  0  0  0
    5.0610   -4.9510    3.5120 C   0  0  0  0  0  3  0  0  0  0  0  0
    5.9470   -4.0050    4.3330 C   0  0  0  0  0  2  0  0  0  0  0  0
    5.2200   -3.5140    5.5850 C   0  0  0  0  0  2  0  0  0  0  0  0
    3.8720   -2.8840    5.2460 C   0  0  0  0  0  2  0  0  0  0  0  0
    2.9930   -3.8280    4.4280 C   0  0  0  0  0  2  0  0  0  0  0  0
    3.7120   -4.3050    3.1650 C   0  0  0  0  0  2  0  0  0  0  0  0
   10.3630   -2.4460    0.7390 O   0  0  0  0  0  1  0  0  0  0  0  0
    9.9270   -3.4150    0.0440 C   0  0  0  0  0  0  0  0  0  0  0  0
   10.3950   -3.8070   -1.0700 O   0  0  0  0  0  0  0  0  0  0  0  0
  1  8  1  0  0  0  0
  2  1  2  0  0  0  0
  2  3  1  0  0  0  0
  3  7  2  0  0  0  0
  4  3  1  0  0  0  0
  4  5  2  0  0  0  0
  5  9  1  0  0  0  0
  5  6  1  0  0  0  0
  6 15  1  0  0  0  0
  7  8  1  0  0  0  0
  7  6  1  0  0  0  0
  9 10  1  0  0  0  0
 10 11  2  0  0  0  0
 12 11  1  0  0  0  0
 13 12  2  0  0  0  0
 14 13  1  0  0  0  0
 14  9  2  0  0  0  0
 15 16  1  0  0  0  0
 16 17  1  0  0  0  0
 18 17  1  0  0  0  0
 19 18  1  0  0  0  0
 20 15  1  0  0  0  0
 20 19  1  0  0  0  0
 22  1  1  0  0  0  0
 22 21  1  0  0  0  0
 23 22  2  0  0  0  0
M  END
>  <minimizedAffinity>
-6.66139889

$$$$
