
 OpenBabel09122222393D

 23 26  0  0  0  0  0  0  0  0999 V2000
    8.6730   -4.0630    0.8070 C   0  0  0  0  0  0  0  0  0  0  0  0
    8.4190   -5.2870    0.1840 C   0  0  0  0  0  3  0  0  0  0  0  0
    7.3100   -5.8980    0.7760 C   0  0  0  0  0  0  0  0  0  0  0  0
    6.6470   -7.0580    0.5730 N   0  0  0  0  0  0  0  0  0  0  0  0
    5.6650   -7.0450    1.4730 C   0  0  0  0  0  0  0  0  0  0  0  0
    5.7210   -5.8890    2.2560 N   0  0  0  0  0  0  0  0  0  0  0  0
    6.7760   -5.1800    1.7720 C   0  0  0  0  0  0  0  0  0  0  0  0
    7.5360   -3.7350    2.0820 S   0  0  0  0  0  0  0  0  0  0  0  0
    4.6930   -8.1250    1.6020 C   0  0  0  0  0  0  0  0  0  0  0  0
    4.9460   -9.1910    2.4730 C   0  0  0  0  0  3  0  0  0  0  0  0
    4.0300  -10.2390    2.5930 C   0  0  0  0  0  3  0  0  0  0  0  0
    2.8640  -10.2340    1.8280 C   0  0  0  0  0  3  0  0  0  0  0  0
    2.6200   -9.1920    0.9340 C   0  0  0  0  0  3  0  0  0  0  0  0
    3.5370   -8.1460    0.8140 C   0  0  0  0  0  3  0  0  0  0  0  0
    4.8790   -5.4630    3.3660 C   0  0  0  0  0  3  0  0  0  0  0  0
    3.9410   -4.3050    3.0000 C   0  0  0  0  0  2  0  0  0  0  0  0
    3.1780   -3.8020    4.2260 C   0  0  0  0  0  2  0  0  0  0  0  0
    2.4390   -4.9340    4.9360 C   0  0  0  0  0  2  0  0  0  0  0  0
    3.3760   -6.0840    5.2980 C   0  0  0  0  0  2  0  0  0  0  0  0
    4.1260   -6.6010    4.0700 C   0  0  0  0  0  2  0  0  0  0  0  0
   10.4450   -2.6110    1.3670 O   0  0  0  0  0  1  0  0  0  0  0  0
    9.7860   -3.1520    0.4260 C   0  0  0  0  0  0  0  0  0  0  0  0
    9.9860   -2.9900   -0.8180 O   0  0  0  0  0  0  0  0  0  0  0  0
  1  8  1  0  0  0  0
  2  3  1  0  0  0  0
  2  1  2  0  0  0  0
  3  7  2  0  0  0  0
  4  3  1  0  0  0  0
  4  5  2  0  0  0  0
  5  9  1  0  0  0  0
  5  6  1  0  0  0  0
  6 15  1  0  0  0  0
  7  8  1  0  0  0  0
  7  6  1  0  0  0  0
  9 10  1  0  0  0  0
 10 11  2  0  0  0  0
 12 11  1  0  0  0  0
 13 12  2  0  0  0  0
 14 13  1  0  0  0  0
 14  9  2  0  0  0  0
 15 20  1  0  0  0  0
 16 15  1  0  0  0  0
 16 17  1  0  0  0  0
 17 18  1  0  0  0  0
 18 19  1  0  0  0  0
 20 19  1  0  0  0  0
 22  1  1  0  0  0  0
 22 21  1  0  0  0  0
 23 22  2  0  0  0  0
M  END
>  <minimizedAffinity>
-6.59459066

$$$$
