
 OpenBabel09122222393D

 23 26  0  0  0  0  0  0  0  0999 V2000
    4.2110   -8.5180    0.8850 C   0  0  0  0  0  0  0  0  0  0  0  0
    5.3670   -8.1950    0.1720 C   0  0  0  0  0  3  0  0  0  0  0  0
    5.9240   -7.0180    0.6830 C   0  0  0  0  0  0  0  0  0  0  0  0
    7.0120   -6.2770    0.3790 N   0  0  0  0  0  0  0  0  0  0  0  0
    6.9880   -5.2720    1.2550 C   0  0  0  0  0  0  0  0  0  0  0  0
    5.8750   -5.3690    2.0950 N   0  0  0  0  0  0  0  0  0  0  0  0
    5.2310   -6.5020    1.7050 C   0  0  0  0  0  0  0  0  0  0  0  0
    3.8760   -7.3610    2.1400 S   0  0  0  0  0  0  0  0  0  0  0  0
    7.9980   -4.2210    1.2840 C   0  0  0  0  0  0  0  0  0  0  0  0
    8.8780   -4.0670    0.2050 C   0  0  0  0  0  3  0  0  0  0  0  0
    9.8590   -3.0740    0.2290 C   0  0  0  0  0  3  0  0  0  0  0  0
    9.9780   -2.2400    1.3410 C   0  0  0  0  0  3  0  0  0  0  0  0
    9.1270   -2.4080    2.4330 C   0  0  0  0  0  3  0  0  0  0  0  0
    8.1460   -3.4010    2.4080 C   0  0  0  0  0  3  0  0  0  0  0  0
    5.4290   -4.4940    3.1700 C   0  0  0  0  0  3  0  0  0  0  0  0
    4.3300   -3.5160    2.7310 C   0  0  0  0  0  2  0  0  0  0  0  0
    3.9890   -2.5290    3.8480 C   0  0  0  0  0  2  0  0  0  0  0  0
    3.6300   -3.2470    5.1480 C   0  0  0  0  0  2  0  0  0  0  0  0
    4.7250   -4.2200    5.5800 C   0  0  0  0  0  2  0  0  0  0  0  0
    5.0540   -5.2190    4.4710 C   0  0  0  0  0  2  0  0  0  0  0  0
    3.3680  -10.6440    1.4620 O   0  0  0  0  0  1  0  0  0  0  0  0
    3.3670   -9.7100    0.6010 C   0  0  0  0  0  0  0  0  0  0  0  0
    2.7090   -9.6950   -0.4850 O   0  0  0  0  0  0  0  0  0  0  0  0
  1  8  1  0  0  0  0
  2  3  1  0  0  0  0
  2  1  2  0  0  0  0
  3  7  2  0  0  0  0
  4  3  1  0  0  0  0
  4  5  2  0  0  0  0
  5  9  1  0  0  0  0
  5  6  1  0  0  0  0
  6 15  1  0  0  0  0
  7  6  1  0  0  0  0
  7  8  1  0  0  0  0
  9 14  1  0  0  0  0
 10 11  1  0  0  0  0
 10  9  2  0  0  0  0
 11 12  2  0  0  0  0
 12 13  1  0  0  0  0
 14 13  2  0  0  0  0
 15 20  1  0  0  0  0
 16 15  1  0  0  0  0
 16 17  1  0  0  0  0
 17 18  1  0  0  0  0
 18 19  1  0  0  0  0
 20 19  1  0  0  0  0
 22  1  1  0  0  0  0
 22 21  1  0  0  0  0
 23 22  2  0  0  0  0
M  END
>  <minimizedAffinity>
-3.84014511

$$$$
