
 OpenBabel09122222393D

 23 26  0  0  0  0  0  0  0  0999 V2000
    9.1460   -3.9110    0.6930 C   0  0  0  0  0  0  0  0  0  0  0  0
    8.5060   -3.1920    1.7050 C   0  0  0  0  0  3  0  0  0  0  0  0
    7.3750   -3.8910    2.1380 C   0  0  0  0  0  0  0  0  0  0  0  0
    6.4200   -3.6630    3.0670 N   0  0  0  0  0  0  0  0  0  0  0  0
    5.6200   -4.7260    2.9930 C   0  0  0  0  0  0  0  0  0  0  0  0
    6.0580   -5.6120    2.0050 N   0  0  0  0  0  0  0  0  0  0  0  0
    7.1840   -5.0480    1.4930 C   0  0  0  0  0  0  0  0  0  0  0  0
    8.3210   -5.4000    0.3330 S   0  0  0  0  0  0  0  0  0  0  0  0
    4.4430   -4.8930    3.8370 C   0  0  0  0  0  0  0  0  0  0  0  0
    3.3950   -3.9660    3.7660 C   0  0  0  0  0  3  0  0  0  0  0  0
    2.2700   -4.1070    4.5810 C   0  0  0  0  0  3  0  0  0  0  0  0
    2.1950   -5.1660    5.4860 C   0  0  0  0  0  3  0  0  0  0  0  0
    3.2480   -6.0740    5.5860 C   0  0  0  0  0  3  0  0  0  0  0  0
    4.3730   -5.9320    4.7720 C   0  0  0  0  0  3  0  0  0  0  0  0
    5.4900   -6.8760    1.5560 C   0  0  0  0  0  3  0  0  0  0  0  0
    5.4590   -7.9460    2.6560 C   0  0  0  0  0  2  0  0  0  0  0  0
    4.9840   -9.2910    2.1070 C   0  0  0  0  0  2  0  0  0  0  0  0
    3.6400   -9.1680    1.3920 C   0  0  0  0  0  2  0  0  0  0  0  0
    3.6750   -8.1020    0.2990 C   0  0  0  0  0  2  0  0  0  0  0  0
    4.1320   -6.7510    0.8500 C   0  0  0  0  0  2  0  0  0  0  0  0
   10.8640   -4.2110   -0.8940 O   0  0  0  0  0  0  0  0  0  0  0  0
   10.3830   -3.4540    0.0040 C   0  0  0  0  0  0  0  0  0  0  0  0
   10.8590   -2.3370    0.3750 O   0  0  0  0  0  1  0  0  0  0  0  0
  1  2  2  0  0  0  0
  2  3  1  0  0  0  0
  3  4  1  0  0  0  0
  5  4  2  0  0  0  0
  5  9  1  0  0  0  0
  6  5  1  0  0  0  0
  7  6  1  0  0  0  0
  7  3  2  0  0  0  0
  8  1  1  0  0  0  0
  8  7  1  0  0  0  0
  9 14  1  0  0  0  0
 10  9  2  0  0  0  0
 10 11  1  0  0  0  0
 11 12  2  0  0  0  0
 12 13  1  0  0  0  0
 14 13  2  0  0  0  0
 15  6  1  0  0  0  0
 15 16  1  0  0  0  0
 17 16  1  0  0  0  0
 18 17  1  0  0  0  0
 19 20  1  0  0  0  0
 19 18  1  0  0  0  0
 20 15  1  0  0  0  0
 21 22  2  0  0  0  0
 22 23  1  0  0  0  0
 22  1  1  0  0  0  0
M  END
>  <minimizedAffinity>
-6.23652267

$$$$
