
 OpenBabel09122222393D

 23 26  0  0  0  0  0  0  0  0999 V2000
    1.9540   -9.3020    3.7790 C   0  0  0  0  0  0  0  0  0  0  0  0
    2.7070   -9.5660    2.6340 C   0  0  0  0  0  3  0  0  0  0  0  0
    3.5410   -8.4790    2.3540 C   0  0  0  0  0  0  0  0  0  0  0  0
    4.4510   -8.2070    1.3940 N   0  0  0  0  0  0  0  0  0  0  0  0
    4.9080   -6.9920    1.7000 C   0  0  0  0  0  0  0  0  0  0  0  0
    4.2710   -6.4920    2.8380 N   0  0  0  0  0  0  0  0  0  0  0  0
    3.4160   -7.4750    3.2300 C   0  0  0  0  0  0  0  0  0  0  0  0
    2.3130   -7.7360    4.4460 S   0  0  0  0  0  0  0  0  0  0  0  0
    5.9240   -6.3050    0.9110 C   0  0  0  0  0  0  0  0  0  0  0  0
    6.9460   -5.5950    1.5540 C   0  0  0  0  0  3  0  0  0  0  0  0
    7.9150   -4.9200    0.8090 C   0  0  0  0  0  3  0  0  0  0  0  0
    7.8570   -4.9370   -0.5850 C   0  0  0  0  0  3  0  0  0  0  0  0
    6.8250   -5.6140   -1.2330 C   0  0  0  0  0  3  0  0  0  0  0  0
    5.8550   -6.2880   -0.4860 C   0  0  0  0  0  3  0  0  0  0  0  0
    4.4240   -5.2120    3.5160 C   0  0  0  0  0  3  0  0  0  0  0  0
    3.2100   -4.2890    3.3420 C   0  0  0  0  0  2  0  0  0  0  0  0
    3.4690   -2.9120    3.9520 C   0  0  0  0  0  2  0  0  0  0  0  0
    3.9050   -3.0120    5.4120 C   0  0  0  0  0  2  0  0  0  0  0  0
    5.1130   -3.9320    5.5820 C   0  0  0  0  0  2  0  0  0  0  0  0
    4.8490   -5.3160    4.9890 C   0  0  0  0  0  2  0  0  0  0  0  0
    1.1150  -10.5840    5.5720 O   0  0  0  0  0  1  0  0  0  0  0  0
    0.9620  -10.2480    4.3570 C   0  0  0  0  0  0  0  0  0  0  0  0
    0.0370  -10.6440    3.5820 O   0  0  0  0  0  0  0  0  0  0  0  0
  1 22  1  0  0  0  0
  1  8  1  0  0  0  0
  2  1  2  0  0  0  0
  3  2  1  0  0  0  0
  3  7  2  0  0  0  0
  4  5  2  0  0  0  0
  4  3  1  0  0  0  0
  5  6  1  0  0  0  0
  6  7  1  0  0  0  0
  6 15  1  0  0  0  0
  7  8  1  0  0  0  0
  9 10  1  0  0  0  0
  9  5  1  0  0  0  0
 11 10  2  0  0  0  0
 12 11  1  0  0  0  0
 13 12  2  0  0  0  0
 13 14  1  0  0  0  0
 14  9  2  0  0  0  0
 15 20  1  0  0  0  0
 16 15  1  0  0  0  0
 16 17  1  0  0  0  0
 17 18  1  0  0  0  0
 18 19  1  0  0  0  0
 20 19  1  0  0  0  0
 22 21  1  0  0  0  0
 23 22  2  0  0  0  0
M  END
>  <minimizedAffinity>
-5.95565462

$$$$
