
 OpenBabel09182209113D

 42 47  0  0  0  0  0  0  0  0999 V2000
    2.7640   -9.4260    2.1140 C   0  0  0  0  0  0  0  0  0  0  0  0
    3.0990   -8.9850    0.8310 C   0  0  0  0  0  3  0  0  0  0  0  0
    4.0980   -8.0260    0.6410 C   0  0  0  0  0  3  0  0  0  0  0  0
    4.7620   -7.4770    1.7430 C   0  0  0  0  0  0  0  0  0  0  0  0
    4.4340   -7.9310    3.0250 C   0  0  0  0  0  3  0  0  0  0  0  0
    3.4340   -8.8920    3.2120 C   0  0  0  0  0  3  0  0  0  0  0  0
    5.8120   -6.4720    1.5790 C   0  0  0  0  0  0  0  0  0  0  0  0
    6.8100   -6.5950    0.7270 N   0  0  0  0  0  0  0  0  0  0  0  0
    7.5580   -5.4500    0.8460 C   0  0  0  0  0  0  0  0  0  0  0  0
    8.7120   -5.0650    0.1440 C   0  0  0  0  0  3  0  0  0  0  0  0
    9.3250   -3.8280    0.4280 C   0  0  0  0  0  0  0  0  0  0  0  0
    8.7580   -3.0050    1.4130 C   0  0  0  0  0  3  0  0  0  0  0  0
    7.6090   -3.3730    2.1250 C   0  0  0  0  0  3  0  0  0  0  0  0
    7.0280   -4.6100    1.8210 C   0  0  0  0  0  0  0  0  0  0  0  0
    5.9370   -5.3000    2.3110 N   0  0  0  0  0  0  0  0  0  0  0  0
    5.1000   -4.9080    3.4420 C   0  0  0  0  0  3  0  0  0  0  0  0
    5.8920   -4.2230    4.5690 C   0  0  0  0  0  2  0  0  0  0  0  0
    4.9880   -3.8810    5.7530 C   0  0  0  0  0  2  0  0  0  0  0  0
    3.7810   -3.0530    5.3210 C   0  0  0  0  0  2  0  0  0  0  0  0
    2.9900   -3.7450    4.2130 C   0  0  0  0  0  2  0  0  0  0  0  0
    3.8740   -4.0870    3.0150 C   0  0  0  0  0  2  0  0  0  0  0  0
   10.5740   -3.3950   -0.3140 C   0  0  0  0  0  0  0  0  0  0  0  0
   11.6050   -4.1280   -0.1980 O   0  0  0  0  0  1  0  0  0  0  0  0
   10.4960   -2.3250   -0.9980 O   0  0  0  0  0  0  0  0  0  0  0  0
    1.7700  -10.3610    2.1440 O   0  0  0  0  0  0  0  0  0  0  0  0
    2.0310  -11.6460    2.7040 C   0  0  0  0  0  2  0  0  0  0  0  0
    2.9300  -13.6380   -0.4300 C   0  0  0  0  0  0  0  0  0  0  0  0
    4.1420  -14.2250   -0.0640 C   0  0  0  0  0  3  0  0  0  0  0  0
    4.6740  -13.9970    1.2060 C   0  0  0  0  0  3  0  0  0  0  0  0
    4.0150  -13.1720    2.1360 C   0  0  0  0  0  0  0  0  0  0  0  0
    2.7910  -12.5680    1.7670 C   0  0  0  0  0  0  0  0  0  0  0  0
    2.2650  -12.8070    0.4790 C   0  0  0  0  0  3  0  0  0  0  0  0
    4.6360  -12.9710    3.4530 C   0  0  0  0  0  0  0  0  0  0  0  0
    5.1360  -11.7140    3.8280 C   0  0  0  0  0  3  0  0  0  0  0  0
    5.7310  -11.5280    5.0790 C   0  0  0  0  0  3  0  0  0  0  0  0
    5.8350  -12.6010    5.9620 C   0  0  0  0  0  0  0  0  0  0  0  0
    6.5670  -12.3700    7.5020 Cl  0  0  0  0  0  0  0  0  0  0  0  0
    5.3510  -13.8570    5.6060 C   0  0  0  0  0  3  0  0  0  0  0  0
    4.7570  -14.0400    4.3550 C   0  0  0  0  0  3  0  0  0  0  0  0
    2.3160  -15.3290   -2.2790 C   0  0  0  0  0  1  0  0  0  0  0  0
    2.3950  -13.9040   -1.7950 C   0  0  0  0  0  0  0  0  0  0  0  0
    2.0120  -12.9680   -2.4930 O   0  0  0  0  0  0  0  0  0  0  0  0
  1 25  1  0  0  0  0
  1  6  1  0  0  0  0
  2  1  2  0  0  0  0
  3  2  1  0  0  0  0
  3  4  2  0  0  0  0
  4  5  1  0  0  0  0
  5  6  2  0  0  0  0
  7  4  1  0  0  0  0
  7 15  1  0  0  0  0
  8  9  1  0  0  0  0
  8  7  2  0  0  0  0
  9 14  1  0  0  0  0
 10 11  1  0  0  0  0
 10  9  2  0  0  0  0
 11 12  2  0  0  0  0
 12 13  1  0  0  0  0
 14 13  2  0  0  0  0
 14 15  1  0  0  0  0
 15 16  1  0  0  0  0
 16 17  1  0  0  0  0
 17 18  1  0  0  0  0
 19 18  1  0  0  0  0
 20 19  1  0  0  0  0
 21 16  1  0  0  0  0
 21 20  1  0  0  0  0
 22 23  1  0  0  0  0
 22 11  1  0  0  0  0
 24 22  2  0  0  0  0
 25 26  1  0  0  0  0
 27 28  2  0  0  0  0
 27 32  1  0  0  0  0
 28 29  1  0  0  0  0
 29 30  2  0  0  0  0
 30 33  1  0  0  0  0
 31 30  1  0  0  0  0
 31 26  1  0  0  0  0
 32 31  2  0  0  0  0
 33 34  2  0  0  0  0
 33 39  1  0  0  0  0
 34 35  1  0  0  0  0
 35 36  2  0  0  0  0
 36 37  1  0  0  0  0
 38 36  1  0  0  0  0
 39 38  2  0  0  0  0
 40 41  1  0  0  0  0
 41 27  1  0  0  0  0
 42 41  2  0  0  0  0
M  END
>  <minimizedAffinity>
-9.14965916

$$$$
