
 OpenBabel09182209113D

 42 47  0  0  0  0  0  0  0  0999 V2000
    6.9460   -6.3970    1.0570 C   0  0  0  0  0  0  0  0  0  0  0  0
    7.1600   -7.4920    1.9000 C   0  0  0  0  0  3  0  0  0  0  0  0
    6.0990   -8.0750    2.5990 C   0  0  0  0  0  3  0  0  0  0  0  0
    4.8080   -7.5520    2.4790 C   0  0  0  0  0  0  0  0  0  0  0  0
    4.5950   -6.4650    1.6240 C   0  0  0  0  0  3  0  0  0  0  0  0
    5.6580   -5.8830    0.9240 C   0  0  0  0  0  3  0  0  0  0  0  0
    3.6760   -8.1380    3.1960 C   0  0  0  0  0  0  0  0  0  0  0  0
    3.0560   -9.2340    2.8050 N   0  0  0  0  0  0  0  0  0  0  0  0
    2.0830   -9.4780    3.7410 C   0  0  0  0  0  0  0  0  0  0  0  0
    1.1610  -10.5360    3.8120 C   0  0  0  0  0  3  0  0  0  0  0  0
    0.2390  -10.5920    4.8760 C   0  0  0  0  0  0  0  0  0  0  0  0
    0.2670   -9.5800    5.8480 C   0  0  0  0  0  3  0  0  0  0  0  0
    1.1770   -8.5160    5.7940 C   0  0  0  0  0  3  0  0  0  0  0  0
    2.0770   -8.4890    4.7210 C   0  0  0  0  0  0  0  0  0  0  0  0
    3.0730   -7.6160    4.3310 N   0  0  0  0  0  0  0  0  0  0  0  0
    3.3970   -6.3350    4.9560 C   0  0  0  0  0  3  0  0  0  0  0  0
    2.4990   -5.1840    4.4700 C   0  0  0  0  0  2  0  0  0  0  0  0
    2.9100   -3.8560    5.1060 C   0  0  0  0  0  2  0  0  0  0  0  0
    2.9460   -3.9470    6.6290 C   0  0  0  0  0  2  0  0  0  0  0  0
    3.8510   -5.0810    7.1050 C   0  0  0  0  0  2  0  0  0  0  0  0
    3.4520   -6.4200    6.4880 C   0  0  0  0  0  2  0  0  0  0  0  0
   -0.7670  -11.7220    4.9690 C   0  0  0  0  0  0  0  0  0  0  0  0
   -0.3150  -12.9090    4.9400 O   0  0  0  0  0  0  0  0  0  0  0  0
   -1.9930  -11.3960    5.0680 O   0  0  0  0  0  1  0  0  0  0  0  0
    8.0740   -5.9330    0.4430 O   0  0  0  0  0  0  0  0  0  0  0  0
    8.2020   -4.5400    0.1690 C   0  0  0  0  0  2  0  0  0  0  0  0
    8.1730   -3.1080    3.7100 C   0  0  0  0  0  0  0  0  0  0  0  0
    9.3010   -2.2840    3.7000 C   0  0  0  0  0  3  0  0  0  0  0  0
   10.0720   -2.1700    2.5440 C   0  0  0  0  0  3  0  0  0  0  0  0
    9.7440   -2.8800    1.3740 C   0  0  0  0  0  0  0  0  0  0  0  0
    8.6080   -3.7230    1.3820 C   0  0  0  0  0  0  0  0  0  0  0  0
    7.8370   -3.8290    2.5590 C   0  0  0  0  0  3  0  0  0  0  0  0
   10.6050   -2.7170    0.1940 C   0  0  0  0  0  0  0  0  0  0  0  0
   10.4340   -1.6290   -0.6770 C   0  0  0  0  0  3  0  0  0  0  0  0
   11.2520   -1.4820   -1.8010 C   0  0  0  0  0  3  0  0  0  0  0  0
   12.2440   -2.4250   -2.0640 C   0  0  0  0  0  0  0  0  0  0  0  0
   13.2500   -2.2410   -3.4480 Cl  0  0  0  0  0  0  0  0  0  0  0  0
   12.4240   -3.5130   -1.2150 C   0  0  0  0  0  3  0  0  0  0  0  0
   11.6060   -3.6590   -0.0930 C   0  0  0  0  0  3  0  0  0  0  0  0
    7.8580   -2.4730    6.1910 C   0  0  0  0  0  1  0  0  0  0  0  0
    7.3760   -3.2050    4.9660 C   0  0  0  0  0  0  0  0  0  0  0  0
    6.3350   -3.8590    4.9770 O   0  0  0  0  0  0  0  0  0  0  0  0
  1  2  1  0  0  0  0
  2  3  2  0  0  0  0
  4  3  1  0  0  0  0
  4  7  1  0  0  0  0
  5  4  2  0  0  0  0
  6  1  2  0  0  0  0
  6  5  1  0  0  0  0
  7 15  1  0  0  0  0
  8  7  2  0  0  0  0
  8  9  1  0  0  0  0
  9 10  2  0  0  0  0
  9 14  1  0  0  0  0
 10 11  1  0  0  0  0
 11 22  1  0  0  0  0
 11 12  2  0  0  0  0
 13 12  1  0  0  0  0
 14 13  2  0  0  0  0
 15 14  1  0  0  0  0
 15 16  1  0  0  0  0
 16 21  1  0  0  0  0
 17 16  1  0  0  0  0
 17 18  1  0  0  0  0
 18 19  1  0  0  0  0
 19 20  1  0  0  0  0
 21 20  1  0  0  0  0
 22 24  1  0  0  0  0
 23 22  2  0  0  0  0
 25  1  1  0  0  0  0
 26 25  1  0  0  0  0
 26 31  1  0  0  0  0
 27 41  1  0  0  0  0
 28 27  1  0  0  0  0
 29 28  2  0  0  0  0
 30 31  2  0  0  0  0
 30 29  1  0  0  0  0
 31 32  1  0  0  0  0
 32 27  2  0  0  0  0
 33 30  1  0  0  0  0
 34 33  2  0  0  0  0
 35 34  1  0  0  0  0
 36 35  2  0  0  0  0
 36 38  1  0  0  0  0
 37 36  1  0  0  0  0
 38 39  2  0  0  0  0
 39 33  1  0  0  0  0
 41 42  2  0  0  0  0
 41 40  1  0  0  0  0
M  END
>  <minimizedAffinity>
-8.34347725

$$$$
