
 OpenBabel09182209113D

 42 47  0  0  0  0  0  0  0  0999 V2000
    8.1820   -5.1190   -0.4120 C   0  0  0  0  0  0  0  0  0  0  0  0
    8.3930   -5.8360    0.7680 C   0  0  0  0  0  3  0  0  0  0  0  0
    7.3870   -6.6450    1.3050 C   0  0  0  0  0  3  0  0  0  0  0  0
    6.1420   -6.7270    0.6730 C   0  0  0  0  0  0  0  0  0  0  0  0
    5.9390   -6.0190   -0.5160 C   0  0  0  0  0  3  0  0  0  0  0  0
    6.9480   -5.2110   -1.0520 C   0  0  0  0  0  3  0  0  0  0  0  0
    5.0680   -7.5640    1.2080 C   0  0  0  0  0  0  0  0  0  0  0  0
    4.6010   -8.6310    0.5910 N   0  0  0  0  0  0  0  0  0  0  0  0
    3.6350   -9.1560    1.4110 C   0  0  0  0  0  0  0  0  0  0  0  0
    2.8490  -10.3070    1.2380 C   0  0  0  0  0  3  0  0  0  0  0  0
    1.9050  -10.6670    2.2200 C   0  0  0  0  0  0  0  0  0  0  0  0
    1.7760   -9.8590    3.3600 C   0  0  0  0  0  3  0  0  0  0  0  0
    2.5490   -8.7060    3.5510 C   0  0  0  0  0  3  0  0  0  0  0  0
    3.4740   -8.3750    2.5520 C   0  0  0  0  0  0  0  0  0  0  0  0
    4.3680   -7.3360    2.3830 N   0  0  0  0  0  0  0  0  0  0  0  0
    4.5100   -6.1660    3.2470 C   0  0  0  0  0  3  0  0  0  0  0  0
    4.0460   -4.8610    2.5760 C   0  0  0  0  0  2  0  0  0  0  0  0
    4.2660   -3.6580    3.4930 C   0  0  0  0  0  2  0  0  0  0  0  0
    3.6110   -3.8620    4.8560 C   0  0  0  0  0  2  0  0  0  0  0  0
    4.0870   -5.1500    5.5250 C   0  0  0  0  0  2  0  0  0  0  0  0
    3.8680   -6.3660    4.6280 C   0  0  0  0  0  2  0  0  0  0  0  0
    1.0440  -11.9030    2.0500 C   0  0  0  0  0  0  0  0  0  0  0  0
    0.1400  -12.1080    2.9200 O   0  0  0  0  0  1  0  0  0  0  0  0
    1.2910  -12.6450    1.0470 O   0  0  0  0  0  0  0  0  0  0  0  0
    9.2520   -4.3730   -0.8140 O   0  0  0  0  0  0  0  0  0  0  0  0
   10.0790   -3.7460    0.1640 C   0  0  0  0  0  2  0  0  0  0  0  0
   10.7120   -0.3080   -1.3780 C   0  0  0  0  0  0  0  0  0  0  0  0
   10.2640    0.5490   -0.3720 C   0  0  0  0  0  3  0  0  0  0  0  0
    9.7680    0.0260    0.8230 C   0  0  0  0  0  3  0  0  0  0  0  0
    9.6990   -1.3630    1.0380 C   0  0  0  0  0  0  0  0  0  0  0  0
   10.1430   -2.2360    0.0180 C   0  0  0  0  0  0  0  0  0  0  0  0
   10.6420   -1.6920   -1.1860 C   0  0  0  0  0  3  0  0  0  0  0  0
    9.1590   -1.8440    2.3170 C   0  0  0  0  0  0  0  0  0  0  0  0
    8.1610   -2.8310    2.3510 C   0  0  0  0  0  3  0  0  0  0  0  0
    7.6470   -3.2820    3.5700 C   0  0  0  0  0  3  0  0  0  0  0  0
    8.1240   -2.7450    4.7640 C   0  0  0  0  0  0  0  0  0  0  0  0
    7.4900   -3.3020    6.2640 Cl  0  0  0  0  0  0  0  0  0  0  0  0
    9.1090   -1.7610    4.7510 C   0  0  0  0  0  3  0  0  0  0  0  0
    9.6220   -1.3120    3.5310 C   0  0  0  0  0  3  0  0  0  0  0  0
   12.1290    1.4980   -2.5560 C   0  0  0  0  0  1  0  0  0  0  0  0
   11.2340    0.2900   -2.6410 C   0  0  0  0  0  0  0  0  0  0  0  0
   10.9430   -0.2190   -3.7210 O   0  0  0  0  0  0  0  0  0  0  0  0
  1  2  1  0  0  0  0
  2  3  2  0  0  0  0
  4  7  1  0  0  0  0
  4  3  1  0  0  0  0
  5  4  2  0  0  0  0
  6  5  1  0  0  0  0
  6  1  2  0  0  0  0
  7 15  1  0  0  0  0
  8  7  2  0  0  0  0
  8  9  1  0  0  0  0
  9 14  1  0  0  0  0
 10  9  2  0  0  0  0
 10 11  1  0  0  0  0
 11 12  2  0  0  0  0
 12 13  1  0  0  0  0
 14 13  2  0  0  0  0
 15 14  1  0  0  0  0
 15 16  1  0  0  0  0
 16 21  1  0  0  0  0
 17 16  1  0  0  0  0
 17 18  1  0  0  0  0
 18 19  1  0  0  0  0
 19 20  1  0  0  0  0
 21 20  1  0  0  0  0
 22 11  1  0  0  0  0
 22 23  1  0  0  0  0
 24 22  2  0  0  0  0
 25  1  1  0  0  0  0
 25 26  1  0  0  0  0
 27 32  2  0  0  0  0
 27 28  1  0  0  0  0
 28 29  2  0  0  0  0
 29 30  1  0  0  0  0
 30 33  1  0  0  0  0
 31 26  1  0  0  0  0
 31 30  2  0  0  0  0
 32 31  1  0  0  0  0
 33 34  2  0  0  0  0
 33 39  1  0  0  0  0
 34 35  1  0  0  0  0
 35 36  2  0  0  0  0
 36 37  1  0  0  0  0
 38 36  1  0  0  0  0
 39 38  2  0  0  0  0
 41 40  1  0  0  0  0
 41 27  1  0  0  0  0
 42 41  2  0  0  0  0
M  END
>  <minimizedAffinity>
-10.3468771

$$$$
