
 OpenBabel09182209113D

 42 47  0  0  0  0  0  0  0  0999 V2000
    1.0940  -13.1910    3.1820 C   0  0  0  0  0  0  0  0  0  0  0  0
    1.5620  -12.9470    4.4750 C   0  0  0  0  0  3  0  0  0  0  0  0
    1.8600  -11.6480    4.8970 C   0  0  0  0  0  3  0  0  0  0  0  0
    1.7120  -10.5730    4.0140 C   0  0  0  0  0  0  0  0  0  0  0  0
    1.2290  -10.8190    2.7240 C   0  0  0  0  0  3  0  0  0  0  0  0
    0.9310  -12.1200    2.3050 C   0  0  0  0  0  3  0  0  0  0  0  0
    2.0140   -9.2020    4.4230 C   0  0  0  0  0  0  0  0  0  0  0  0
    3.2050   -8.6510    4.2980 N   0  0  0  0  0  0  0  0  0  0  0  0
    3.0820   -7.3640    4.7590 C   0  0  0  0  0  0  0  0  0  0  0  0
    4.0460   -6.3440    4.8180 C   0  0  0  0  0  3  0  0  0  0  0  0
    3.6980   -5.0790    5.3330 C   0  0  0  0  0  0  0  0  0  0  0  0
    2.3830   -4.8700    5.7760 C   0  0  0  0  0  3  0  0  0  0  0  0
    1.4090   -5.8750    5.7270 C   0  0  0  0  0  3  0  0  0  0  0  0
    1.7890   -7.1210    5.2130 C   0  0  0  0  0  0  0  0  0  0  0  0
    1.1320   -8.3220    5.0330 N   0  0  0  0  0  0  0  0  0  0  0  0
   -0.2270   -8.6400    5.4640 C   0  0  0  0  0  3  0  0  0  0  0  0
   -0.5220   -8.1910    6.9070 C   0  0  0  0  0  2  0  0  0  0  0  0
   -1.9330   -8.5930    7.3340 C   0  0  0  0  0  2  0  0  0  0  0  0
   -2.9860   -8.0850    6.3540 C   0  0  0  0  0  2  0  0  0  0  0  0
   -2.6980   -8.5460    4.9270 C   0  0  0  0  0  2  0  0  0  0  0  0
   -1.2940   -8.1460    4.4760 C   0  0  0  0  0  2  0  0  0  0  0  0
    4.7250   -3.9660    5.4110 C   0  0  0  0  0  0  0  0  0  0  0  0
    5.9490   -4.3040    5.4630 O   0  0  0  0  0  1  0  0  0  0  0  0
    4.2820   -2.7740    5.4180 O   0  0  0  0  0  0  0  0  0  0  0  0
    0.8480  -14.5060    2.9120 O   0  0  0  0  0  0  0  0  0  0  0  0
    1.9260  -15.3600    2.5340 C   0  0  0  0  0  2  0  0  0  0  0  0
    2.6980  -14.7550   -1.1580 C   0  0  0  0  0  0  0  0  0  0  0  0
    3.8940  -14.0390   -1.0920 C   0  0  0  0  0  3  0  0  0  0  0  0
    4.4730  -13.7580    0.1460 C   0  0  0  0  0  3  0  0  0  0  0  0
    3.8700  -14.1770    1.3470 C   0  0  0  0  0  0  0  0  0  0  0  0
    2.6520  -14.8950    1.2850 C   0  0  0  0  0  0  0  0  0  0  0  0
    2.0780  -15.1710    0.0250 C   0  0  0  0  0  3  0  0  0  0  0  0
    4.5310  -13.8410    2.6150 C   0  0  0  0  0  0  0  0  0  0  0  0
    4.9040  -14.8470    3.5200 C   0  0  0  0  0  3  0  0  0  0  0  0
    5.5280  -14.5230    4.7280 C   0  0  0  0  0  3  0  0  0  0  0  0
    5.7790  -13.1890    5.0410 C   0  0  0  0  0  0  0  0  0  0  0  0
    6.5480  -12.7920    6.5290 Cl  0  0  0  0  0  0  0  0  0  0  0  0
    5.4110  -12.1760    4.1590 C   0  0  0  0  0  3  0  0  0  0  0  0
    4.7870  -12.5030    2.9530 C   0  0  0  0  0  3  0  0  0  0  0  0
    1.3670  -16.3260   -2.7120 C   0  0  0  0  0  1  0  0  0  0  0  0
    2.1100  -15.0330   -2.4990 C   0  0  0  0  0  0  0  0  0  0  0  0
    2.2230  -14.2020   -3.3980 O   0  0  0  0  0  0  0  0  0  0  0  0
  1  2  1  0  0  0  0
  2  3  2  0  0  0  0
  4  7  1  0  0  0  0
  4  3  1  0  0  0  0
  5  4  2  0  0  0  0
  6  5  1  0  0  0  0
  6  1  2  0  0  0  0
  7 15  1  0  0  0  0
  8  7  2  0  0  0  0
  8  9  1  0  0  0  0
  9 10  2  0  0  0  0
  9 14  1  0  0  0  0
 10 11  1  0  0  0  0
 11 22  1  0  0  0  0
 11 12  2  0  0  0  0
 13 12  1  0  0  0  0
 14 13  2  0  0  0  0
 15 14  1  0  0  0  0
 15 16  1  0  0  0  0
 16 17  1  0  0  0  0
 17 18  1  0  0  0  0
 19 18  1  0  0  0  0
 20 19  1  0  0  0  0
 21 20  1  0  0  0  0
 21 16  1  0  0  0  0
 22 24  2  0  0  0  0
 22 23  1  0  0  0  0
 25  1  1  0  0  0  0
 26 25  1  0  0  0  0
 27 28  2  0  0  0  0
 27 32  1  0  0  0  0
 28 29  1  0  0  0  0
 29 30  2  0  0  0  0
 30 33  1  0  0  0  0
 31 30  1  0  0  0  0
 31 26  1  0  0  0  0
 32 31  2  0  0  0  0
 33 39  2  0  0  0  0
 33 34  1  0  0  0  0
 34 35  2  0  0  0  0
 35 36  1  0  0  0  0
 36 37  1  0  0  0  0
 38 36  2  0  0  0  0
 39 38  1  0  0  0  0
 40 41  1  0  0  0  0
 41 27  1  0  0  0  0
 42 41  2  0  0  0  0
M  END
>  <minimizedAffinity>
-8.26622677

$$$$
