
 OpenBabel09182209113D

 42 47  0  0  0  0  0  0  0  0999 V2000
    7.2120   -6.7490    1.1450 C   0  0  0  0  0  0  0  0  0  0  0  0
    5.9600   -6.1840    0.8870 C   0  0  0  0  0  3  0  0  0  0  0  0
    4.8000   -6.7290    1.4430 C   0  0  0  0  0  3  0  0  0  0  0  0
    4.8770   -7.8670    2.2520 C   0  0  0  0  0  0  0  0  0  0  0  0
    6.1330   -8.4220    2.5200 C   0  0  0  0  0  3  0  0  0  0  0  0
    7.2940   -7.8730    1.9630 C   0  0  0  0  0  3  0  0  0  0  0  0
    3.6830   -8.4620    2.8500 C   0  0  0  0  0  0  0  0  0  0  0  0
    2.9530   -7.8620    3.7700 N   0  0  0  0  0  0  0  0  0  0  0  0
    1.9160   -8.7150    4.0530 C   0  0  0  0  0  0  0  0  0  0  0  0
    0.8400   -8.5450    4.9400 C   0  0  0  0  0  3  0  0  0  0  0  0
   -0.1250   -9.5620    5.0760 C   0  0  0  0  0  0  0  0  0  0  0  0
    0.0140  -10.7300    4.3100 C   0  0  0  0  0  3  0  0  0  0  0  0
    1.0810  -10.9200    3.4220 C   0  0  0  0  0  3  0  0  0  0  0  0
    2.0250   -9.8900    3.3150 C   0  0  0  0  0  0  0  0  0  0  0  0
    3.1850   -9.7290    2.5850 N   0  0  0  0  0  0  0  0  0  0  0  0
    3.8200  -10.7340    1.7340 C   0  0  0  0  0  3  0  0  0  0  0  0
    4.1720  -12.0270    2.4890 C   0  0  0  0  0  2  0  0  0  0  0  0
    4.8850  -13.0250    1.5760 C   0  0  0  0  0  2  0  0  0  0  0  0
    4.0790  -13.3050    0.3100 C   0  0  0  0  0  2  0  0  0  0  0  0
    3.7460  -12.0200   -0.4430 C   0  0  0  0  0  2  0  0  0  0  0  0
    3.0250  -11.0120    0.4500 C   0  0  0  0  0  2  0  0  0  0  0  0
   -1.2910   -9.4010    6.0310 C   0  0  0  0  0  0  0  0  0  0  0  0
   -2.2810  -10.1830    5.8800 O   0  0  0  0  0  0  0  0  0  0  0  0
   -1.1900   -8.4920    6.9150 O   0  0  0  0  0  1  0  0  0  0  0  0
    8.2520   -6.1120    0.5330 O   0  0  0  0  0  0  0  0  0  0  0  0
    8.1610   -4.7140    0.2660 C   0  0  0  0  0  2  0  0  0  0  0  0
    8.0490   -3.1580    3.7530 C   0  0  0  0  0  0  0  0  0  0  0  0
    9.1650   -2.3190    3.7330 C   0  0  0  0  0  3  0  0  0  0  0  0
    9.9560   -2.2340    2.5870 C   0  0  0  0  0  3  0  0  0  0  0  0
    9.6590   -2.9900    1.4380 C   0  0  0  0  0  0  0  0  0  0  0  0
    8.5350   -3.8480    1.4560 C   0  0  0  0  0  0  0  0  0  0  0  0
    7.7440   -3.9240    2.6230 C   0  0  0  0  0  3  0  0  0  0  0  0
   10.5380   -2.8570    0.2680 C   0  0  0  0  0  0  0  0  0  0  0  0
   11.6020   -3.7490    0.0630 C   0  0  0  0  0  3  0  0  0  0  0  0
   12.4400   -3.6150   -1.0480 C   0  0  0  0  0  3  0  0  0  0  0  0
   12.2220   -2.5830   -1.9590 C   0  0  0  0  0  0  0  0  0  0  0  0
   13.2550   -2.4210   -3.3260 Cl  0  0  0  0  0  0  0  0  0  0  0  0
   11.1760   -1.6840   -1.7690 C   0  0  0  0  0  3  0  0  0  0  0  0
   10.3400   -1.8200   -0.6580 C   0  0  0  0  0  3  0  0  0  0  0  0
    7.7630   -2.5780    6.2500 C   0  0  0  0  0  1  0  0  0  0  0  0
    7.2310   -3.2220    4.9970 C   0  0  0  0  0  0  0  0  0  0  0  0
    6.1350   -3.7770    4.9770 O   0  0  0  0  0  0  0  0  0  0  0  0
  1  6  1  0  0  0  0
  2  1  2  0  0  0  0
  2  3  1  0  0  0  0
  3  4  2  0  0  0  0
  4  5  1  0  0  0  0
  4  7  1  0  0  0  0
  6  5  2  0  0  0  0
  7  8  2  0  0  0  0
  8  9  1  0  0  0  0
  9 10  1  0  0  0  0
 10 11  2  0  0  0  0
 11 22  1  0  0  0  0
 12 11  1  0  0  0  0
 13 12  2  0  0  0  0
 14 13  1  0  0  0  0
 14  9  2  0  0  0  0
 15  7  1  0  0  0  0
 15 14  1  0  0  0  0
 16 17  1  0  0  0  0
 16 15  1  0  0  0  0
 18 17  1  0  0  0  0
 19 18  1  0  0  0  0
 20 19  1  0  0  0  0
 20 21  1  0  0  0  0
 21 16  1  0  0  0  0
 22 24  1  0  0  0  0
 23 22  2  0  0  0  0
 25  1  1  0  0  0  0
 26 25  1  0  0  0  0
 26 31  1  0  0  0  0
 27 41  1  0  0  0  0
 28 27  1  0  0  0  0
 29 28  2  0  0  0  0
 30 31  2  0  0  0  0
 30 29  1  0  0  0  0
 31 32  1  0  0  0  0
 32 27  2  0  0  0  0
 33 30  1  0  0  0  0
 34 33  1  0  0  0  0
 35 34  2  0  0  0  0
 36 38  2  0  0  0  0
 36 35  1  0  0  0  0
 37 36  1  0  0  0  0
 38 39  1  0  0  0  0
 39 33  2  0  0  0  0
 41 40  1  0  0  0  0
 42 41  2  0  0  0  0
M  END
>  <minimizedAffinity>
-8.59974861

$$$$
