
 OpenBabel09182209113D

 42 47  0  0  0  0  0  0  0  0999 V2000
    6.5420   -6.6230    1.0100 C   0  0  0  0  0  0  0  0  0  0  0  0
    5.2430   -6.3840    0.5550 C   0  0  0  0  0  3  0  0  0  0  0  0
    4.1550   -7.0690    1.1020 C   0  0  0  0  0  3  0  0  0  0  0  0
    4.3590   -8.0250    2.1020 C   0  0  0  0  0  0  0  0  0  0  0  0
    5.6600   -8.2520    2.5650 C   0  0  0  0  0  3  0  0  0  0  0  0
    6.7470   -7.5630    2.0170 C   0  0  0  0  0  3  0  0  0  0  0  0
    3.2430   -8.7600    2.6960 C   0  0  0  0  0  0  0  0  0  0  0  0
    2.4580   -8.2600    3.6310 N   0  0  0  0  0  0  0  0  0  0  0  0
    1.5240   -9.2280    3.9050 C   0  0  0  0  0  0  0  0  0  0  0  0
    0.4440   -9.1950    4.8010 C   0  0  0  0  0  3  0  0  0  0  0  0
   -0.4010  -10.3150    4.9230 C   0  0  0  0  0  0  0  0  0  0  0  0
   -0.1390  -11.4470    4.1360 C   0  0  0  0  0  3  0  0  0  0  0  0
    0.9340  -11.5010    3.2380 C   0  0  0  0  0  3  0  0  0  0  0  0
    1.7570  -10.3710    3.1440 C   0  0  0  0  0  0  0  0  0  0  0  0
    2.8870  -10.0700    2.4100 N   0  0  0  0  0  0  0  0  0  0  0  0
    3.6230  -10.9820    1.5380 C   0  0  0  0  0  3  0  0  0  0  0  0
    4.0400  -12.2850    2.2430 C   0  0  0  0  0  2  0  0  0  0  0  0
    4.8550  -13.1820    1.3110 C   0  0  0  0  0  2  0  0  0  0  0  0
    4.1180  -13.4530    0.0030 C   0  0  0  0  0  2  0  0  0  0  0  0
    3.7200  -12.1570   -0.7000 C   0  0  0  0  0  2  0  0  0  0  0  0
    2.8970  -11.2490    0.2110 C   0  0  0  0  0  2  0  0  0  0  0  0
   -1.5700  -10.3020    5.8880 C   0  0  0  0  0  0  0  0  0  0  0  0
   -2.3650  -11.2930    5.8560 O   0  0  0  0  0  0  0  0  0  0  0  0
   -1.6690   -9.2950    6.6600 O   0  0  0  0  0  1  0  0  0  0  0  0
    7.5020   -5.8820    0.3820 O   0  0  0  0  0  0  0  0  0  0  0  0
    8.6640   -5.4800    1.1040 C   0  0  0  0  0  2  0  0  0  0  0  0
   10.2080   -2.3930   -0.5330 C   0  0  0  0  0  0  0  0  0  0  0  0
    9.7770   -1.3690    0.3120 C   0  0  0  0  0  3  0  0  0  0  0  0
    8.9970   -1.6670    1.4290 C   0  0  0  0  0  3  0  0  0  0  0  0
    8.6210   -2.9900    1.7260 C   0  0  0  0  0  0  0  0  0  0  0  0
    9.0470   -4.0310    0.8670 C   0  0  0  0  0  0  0  0  0  0  0  0
    9.8360   -3.7140   -0.2600 C   0  0  0  0  0  3  0  0  0  0  0  0
    7.7920   -3.2310    2.9150 C   0  0  0  0  0  0  0  0  0  0  0  0
    8.2820   -2.9530    4.2010 C   0  0  0  0  0  3  0  0  0  0  0  0
    7.4920   -3.1900    5.3300 C   0  0  0  0  0  3  0  0  0  0  0  0
    6.2080   -3.7090    5.1810 C   0  0  0  0  0  0  0  0  0  0  0  0
    5.2370   -3.9980    6.5720 Cl  0  0  0  0  0  0  0  0  0  0  0  0
    5.7070   -3.9970    3.9140 C   0  0  0  0  0  3  0  0  0  0  0  0
    6.4980   -3.7610    2.7870 C   0  0  0  0  0  3  0  0  0  0  0  0
   12.3300   -2.7750   -1.9500 C   0  0  0  0  0  1  0  0  0  0  0  0
   11.0390   -2.0340   -1.7170 C   0  0  0  0  0  0  0  0  0  0  0  0
   10.6530   -1.1600   -2.4900 O   0  0  0  0  0  0  0  0  0  0  0  0
  1  6  1  0  0  0  0
  2  1  2  0  0  0  0
  2  3  1  0  0  0  0
  3  4  2  0  0  0  0
  4  5  1  0  0  0  0
  4  7  1  0  0  0  0
  6  5  2  0  0  0  0
  7  8  2  0  0  0  0
  8  9  1  0  0  0  0
  9 10  1  0  0  0  0
 10 11  2  0  0  0  0
 11 22  1  0  0  0  0
 12 11  1  0  0  0  0
 13 12  2  0  0  0  0
 14 13  1  0  0  0  0
 14  9  2  0  0  0  0
 15  7  1  0  0  0  0
 15 14  1  0  0  0  0
 16 17  1  0  0  0  0
 16 15  1  0  0  0  0
 18 17  1  0  0  0  0
 19 18  1  0  0  0  0
 20 19  1  0  0  0  0
 20 21  1  0  0  0  0
 21 16  1  0  0  0  0
 22 24  1  0  0  0  0
 23 22  2  0  0  0  0
 25  1  1  0  0  0  0
 25 26  1  0  0  0  0
 27 32  2  0  0  0  0
 27 28  1  0  0  0  0
 28 29  2  0  0  0  0
 29 30  1  0  0  0  0
 30 33  1  0  0  0  0
 31 26  1  0  0  0  0
 31 30  2  0  0  0  0
 32 31  1  0  0  0  0
 33 34  1  0  0  0  0
 34 35  2  0  0  0  0
 36 35  1  0  0  0  0
 36 37  1  0  0  0  0
 38 36  2  0  0  0  0
 39 33  2  0  0  0  0
 39 38  1  0  0  0  0
 40 41  1  0  0  0  0
 41 27  1  0  0  0  0
 42 41  2  0  0  0  0
M  END
>  <minimizedAffinity>
-8.15280151

$$$$
