
 OpenBabel09182209113D

 42 47  0  0  0  0  0  0  0  0999 V2000
    2.5850   -9.2400    2.7200 C   0  0  0  0  0  0  0  0  0  0  0  0
    3.1440   -8.5060    3.7700 C   0  0  0  0  0  3  0  0  0  0  0  0
    4.1520   -7.5680    3.5310 C   0  0  0  0  0  3  0  0  0  0  0  0
    4.6320   -7.3690    2.2330 C   0  0  0  0  0  0  0  0  0  0  0  0
    4.0610   -8.0950    1.1820 C   0  0  0  0  0  3  0  0  0  0  0  0
    3.0500   -9.0320    1.4230 C   0  0  0  0  0  3  0  0  0  0  0  0
    5.6860   -6.3950    1.9490 C   0  0  0  0  0  0  0  0  0  0  0  0
    6.6480   -6.6000    1.0710 N   0  0  0  0  0  0  0  0  0  0  0  0
    7.4120   -5.4600    1.0680 C   0  0  0  0  0  0  0  0  0  0  0  0
    8.5410   -5.1470    0.2940 C   0  0  0  0  0  3  0  0  0  0  0  0
    9.1790   -3.9010    0.4540 C   0  0  0  0  0  0  0  0  0  0  0  0
    8.6610   -2.9940    1.3910 C   0  0  0  0  0  3  0  0  0  0  0  0
    7.5380   -3.2880    2.1740 C   0  0  0  0  0  3  0  0  0  0  0  0
    6.9310   -4.5370    1.9930 C   0  0  0  0  0  0  0  0  0  0  0  0
    5.8530   -5.1710    2.5790 N   0  0  0  0  0  0  0  0  0  0  0  0
    5.0660   -4.6780    3.7070 C   0  0  0  0  0  3  0  0  0  0  0  0
    5.9130   -3.9310    4.7520 C   0  0  0  0  0  2  0  0  0  0  0  0
    5.0600   -3.4840    5.9390 C   0  0  0  0  0  2  0  0  0  0  0  0
    3.8560   -2.6610    5.4890 C   0  0  0  0  0  2  0  0  0  0  0  0
    3.0100   -3.4120    4.4640 C   0  0  0  0  0  2  0  0  0  0  0  0
    3.8430   -3.8610    3.2640 C   0  0  0  0  0  2  0  0  0  0  0  0
   10.4020   -3.5460   -0.3690 C   0  0  0  0  0  0  0  0  0  0  0  0
   11.4200   -4.2970   -0.2540 O   0  0  0  0  0  1  0  0  0  0  0  0
   10.3170   -2.5180   -1.1140 O   0  0  0  0  0  0  0  0  0  0  0  0
    1.6140  -10.1190    3.1040 O   0  0  0  0  0  0  0  0  0  0  0  0
    1.7340  -11.4960    2.7550 C   0  0  0  0  0  2  0  0  0  0  0  0
    4.7210  -12.4050    4.9580 C   0  0  0  0  0  0  0  0  0  0  0  0
    5.4550  -13.2450    4.1200 C   0  0  0  0  0  3  0  0  0  0  0  0
    5.0020  -13.5140    2.8290 C   0  0  0  0  0  3  0  0  0  0  0  0
    3.8030  -12.9600    2.3450 C   0  0  0  0  0  0  0  0  0  0  0  0
    3.0500  -12.1140    3.1940 C   0  0  0  0  0  0  0  0  0  0  0  0
    3.5200  -11.8510    4.4980 C   0  0  0  0  0  3  0  0  0  0  0  0
    3.3820  -13.2910    0.9770 C   0  0  0  0  0  0  0  0  0  0  0  0
    3.7700  -12.4900   -0.1090 C   0  0  0  0  0  3  0  0  0  0  0  0
    3.3630  -12.8060   -1.4080 C   0  0  0  0  0  3  0  0  0  0  0  0
    2.5600  -13.9230   -1.6300 C   0  0  0  0  0  0  0  0  0  0  0  0
    2.0600  -14.3100   -3.2310 Cl  0  0  0  0  0  0  0  0  0  0  0  0
    2.1600  -14.7260   -0.5650 C   0  0  0  0  0  3  0  0  0  0  0  0
    2.5670  -14.4080    0.7320 C   0  0  0  0  0  3  0  0  0  0  0  0
    6.3870  -12.9700    6.8440 C   0  0  0  0  0  1  0  0  0  0  0  0
    5.2370  -12.1430    6.3320 C   0  0  0  0  0  0  0  0  0  0  0  0
    4.7340  -11.2520    7.0120 O   0  0  0  0  0  0  0  0  0  0  0  0
  1 25  1  0  0  0  0
  1  2  1  0  0  0  0
  3  2  2  0  0  0  0
  4  3  1  0  0  0  0
  5  6  1  0  0  0  0
  5  4  2  0  0  0  0
  6  1  2  0  0  0  0
  7  4  1  0  0  0  0
  7 15  1  0  0  0  0
  8  7  2  0  0  0  0
  9  8  1  0  0  0  0
  9 14  1  0  0  0  0
 10 11  1  0  0  0  0
 10  9  2  0  0  0  0
 11 12  2  0  0  0  0
 12 13  1  0  0  0  0
 14 13  2  0  0  0  0
 14 15  1  0  0  0  0
 15 16  1  0  0  0  0
 16 17  1  0  0  0  0
 17 18  1  0  0  0  0
 19 18  1  0  0  0  0
 20 19  1  0  0  0  0
 21 16  1  0  0  0  0
 21 20  1  0  0  0  0
 22 23  1  0  0  0  0
 22 11  1  0  0  0  0
 24 22  2  0  0  0  0
 26 25  1  0  0  0  0
 26 31  1  0  0  0  0
 27 41  1  0  0  0  0
 28 27  2  0  0  0  0
 29 28  1  0  0  0  0
 30 29  2  0  0  0  0
 30 31  1  0  0  0  0
 31 32  2  0  0  0  0
 32 27  1  0  0  0  0
 33 30  1  0  0  0  0
 34 33  2  0  0  0  0
 35 34  1  0  0  0  0
 36 35  2  0  0  0  0
 36 38  1  0  0  0  0
 37 36  1  0  0  0  0
 38 39  2  0  0  0  0
 39 33  1  0  0  0  0
 41 40  1  0  0  0  0
 41 42  2  0  0  0  0
M  END
>  <minimizedAffinity>
-9.31458855

$$$$
