
 OpenBabel09182209113D

 42 47  0  0  0  0  0  0  0  0999 V2000
    3.0770   -9.1940    1.8130 C   0  0  0  0  0  0  0  0  0  0  0  0
    3.0730   -8.3120    0.7290 C   0  0  0  0  0  3  0  0  0  0  0  0
    4.0670   -7.3400    0.5930 C   0  0  0  0  0  3  0  0  0  0  0  0
    5.0720   -7.2240    1.5580 C   0  0  0  0  0  0  0  0  0  0  0  0
    5.0820   -8.1180    2.6350 C   0  0  0  0  0  3  0  0  0  0  0  0
    4.0860   -9.0920    2.7680 C   0  0  0  0  0  3  0  0  0  0  0  0
    6.1280   -6.2180    1.4460 C   0  0  0  0  0  0  0  0  0  0  0  0
    7.1370   -6.3130    0.6020 N   0  0  0  0  0  0  0  0  0  0  0  0
    7.8870   -5.1770    0.7720 C   0  0  0  0  0  0  0  0  0  0  0  0
    9.0510   -4.7700    0.1000 C   0  0  0  0  0  3  0  0  0  0  0  0
    9.6650   -3.5470    0.4370 C   0  0  0  0  0  0  0  0  0  0  0  0
    9.0890   -2.7590    1.4460 C   0  0  0  0  0  3  0  0  0  0  0  0
    7.9300   -3.1480    2.1290 C   0  0  0  0  0  3  0  0  0  0  0  0
    7.3480   -4.3710    1.7710 C   0  0  0  0  0  0  0  0  0  0  0  0
    6.2490   -5.0750    2.2220 N   0  0  0  0  0  0  0  0  0  0  0  0
    5.3990   -4.7220    3.3570 C   0  0  0  0  0  3  0  0  0  0  0  0
    6.1290   -3.8780    4.4170 C   0  0  0  0  0  2  0  0  0  0  0  0
    5.2200   -3.5810    5.6090 C   0  0  0  0  0  2  0  0  0  0  0  0
    3.9090   -2.9340    5.1710 C   0  0  0  0  0  2  0  0  0  0  0  0
    3.1810   -3.7820    4.1310 C   0  0  0  0  0  2  0  0  0  0  0  0
    4.0690   -4.0840    2.9260 C   0  0  0  0  0  2  0  0  0  0  0  0
   10.9250   -3.0920   -0.2720 C   0  0  0  0  0  0  0  0  0  0  0  0
   12.0360   -3.3470    0.2900 O   0  0  0  0  0  1  0  0  0  0  0  0
   10.7750   -2.4860   -1.3810 O   0  0  0  0  0  0  0  0  0  0  0  0
    2.0440  -10.0860    1.8150 O   0  0  0  0  0  0  0  0  0  0  0  0
    1.8610  -10.9470    2.9370 C   0  0  0  0  0  2  0  0  0  0  0  0
   -0.6950   -8.9150    4.9200 C   0  0  0  0  0  0  0  0  0  0  0  0
   -0.1970   -9.0110    6.2200 C   0  0  0  0  0  3  0  0  0  0  0  0
    0.9790   -9.7190    6.4680 C   0  0  0  0  0  3  0  0  0  0  0  0
    1.6810  -10.3550    5.4280 C   0  0  0  0  0  0  0  0  0  0  0  0
    1.1760  -10.2690    4.1090 C   0  0  0  0  0  0  0  0  0  0  0  0
   -0.0160   -9.5490    3.8740 C   0  0  0  0  0  3  0  0  0  0  0  0
    2.9090  -11.0890    5.7620 C   0  0  0  0  0  0  0  0  0  0  0  0
    2.8860  -12.4790    5.9590 C   0  0  0  0  0  3  0  0  0  0  0  0
    4.0550  -13.1720    6.2830 C   0  0  0  0  0  3  0  0  0  0  0  0
    5.2570  -12.4790    6.4160 C   0  0  0  0  0  0  0  0  0  0  0  0
    6.6960  -13.3350    6.8130 Cl  0  0  0  0  0  0  0  0  0  0  0  0
    5.2990  -11.1000    6.2300 C   0  0  0  0  0  3  0  0  0  0  0  0
    4.1290  -10.4090    5.9070 C   0  0  0  0  0  3  0  0  0  0  0  0
   -2.2500   -6.9630    5.5750 C   0  0  0  0  0  1  0  0  0  0  0  0
   -1.9550   -8.1510    4.6960 C   0  0  0  0  0  0  0  0  0  0  0  0
   -2.7190   -8.4870    3.7940 O   0  0  0  0  0  0  0  0  0  0  0  0
  1 25  1  0  0  0  0
  1  6  1  0  0  0  0
  2  1  2  0  0  0  0
  3  2  1  0  0  0  0
  3  4  2  0  0  0  0
  4  5  1  0  0  0  0
  5  6  2  0  0  0  0
  7  4  1  0  0  0  0
  7 15  1  0  0  0  0
  8  9  1  0  0  0  0
  8  7  2  0  0  0  0
  9 14  1  0  0  0  0
 10 11  1  0  0  0  0
 10  9  2  0  0  0  0
 11 12  2  0  0  0  0
 12 13  1  0  0  0  0
 14 13  2  0  0  0  0
 14 15  1  0  0  0  0
 15 16  1  0  0  0  0
 16 17  1  0  0  0  0
 17 18  1  0  0  0  0
 19 18  1  0  0  0  0
 20 19  1  0  0  0  0
 21 16  1  0  0  0  0
 21 20  1  0  0  0  0
 22 23  1  0  0  0  0
 22 11  1  0  0  0  0
 24 22  2  0  0  0  0
 25 26  1  0  0  0  0
 26 31  1  0  0  0  0
 27 28  1  0  0  0  0
 28 29  2  0  0  0  0
 30 33  1  0  0  0  0
 30 29  1  0  0  0  0
 31 30  2  0  0  0  0
 32 31  1  0  0  0  0
 32 27  2  0  0  0  0
 33 39  2  0  0  0  0
 33 34  1  0  0  0  0
 34 35  2  0  0  0  0
 35 36  1  0  0  0  0
 36 37  1  0  0  0  0
 38 36  2  0  0  0  0
 39 38  1  0  0  0  0
 41 27  1  0  0  0  0
 41 40  1  0  0  0  0
 42 41  2  0  0  0  0
M  END
>  <minimizedAffinity>
-8.46971989

$$$$
