
 OpenBabel09122222393D

 17 17  0  0  0  0  0  0  0  0999 V2000
    9.5910   -1.9180    2.8170 C   0  0  0  0  0  0  0  0  0  0  0  0
    9.3220   -0.6050    2.8370 C   0  0  0  0  0  3  0  0  0  0  0  0
    9.3750    0.1460    1.5760 C   0  0  0  0  0  0  0  0  0  0  0  0
    9.1440    1.3540    1.5420 O   0  0  0  0  0  0  0  0  0  0  0  0
    9.7110   -0.5950    0.3370 C   0  0  0  0  0  0  0  0  0  0  0  0
    9.9620   -1.9050    0.4530 C   0  0  0  0  0  0  0  0  0  0  0  0
    9.9270   -2.5970    1.6570 O   0  0  0  0  0  0  0  0  0  0  0  0
   10.3060   -2.7380   -0.7820 C   0  0  0  0  0  0  0  0  0  0  0  0
    9.8070   -3.9000   -0.7990 O   0  0  0  0  0  1  0  0  0  0  0  0
   10.9890   -2.1330   -1.6590 O   0  0  0  0  0  0  0  0  0  0  0  0
    9.5520   -2.7260    4.0720 C   0  0  0  0  0  0  0  0  0  0  0  0
    8.5940   -3.3960    4.4290 O   0  0  0  0  0  0  0  0  0  0  0  0
   10.7160   -2.6070    4.7710 O   0  0  0  0  0  0  0  0  0  0  0  0
   10.8630   -0.6650    6.2150 C   0  0  0  0  0  1  0  0  0  0  0  0
   10.5830   -2.1540    6.1250 C   0  0  0  0  0  2  0  0  0  0  0  0
    9.7380    0.1150   -0.8460 O   0  0  0  0  0  0  0  0  0  0  0  0
    9.5200    1.0330   -0.5960 H   0  0  0  0  0  0  0  0  0  0  0  0
  1  2  2  0  0  0  0
  1 11  1  0  0  0  0
  3  2  1  0  0  0  0
  4  3  2  0  0  0  0
  5  6  2  0  0  0  0
  5  3  1  0  0  0  0
  6  7  1  0  0  0  0
  7  1  1  0  0  0  0
  8  6  1  0  0  0  0
  9  8  1  0  0  0  0
 10  8  2  0  0  0  0
 11 12  2  0  0  0  0
 11 13  1  0  0  0  0
 13 15  1  0  0  0  0
 15 14  1  0  0  0  0
 16 17  1  0  0  0  0
 16  5  1  0  0  0  0
M  END
>  <minimizedAffinity>
-5.61436844

$$$$
