
 OpenBabel09122222393D

 17 17  0  0  0  0  0  0  0  0999 V2000
    5.5420   -2.6680    6.6810 C   0  0  0  0  0  0  0  0  0  0  0  0
    5.2340   -1.7970    7.6520 C   0  0  0  0  0  3  0  0  0  0  0  0
    3.8930   -1.1970    7.6640 C   0  0  0  0  0  0  0  0  0  0  0  0
    3.5630   -0.3870    8.5290 O   0  0  0  0  0  0  0  0  0  0  0  0
    2.9400   -1.5990    6.6020 C   0  0  0  0  0  0  0  0  0  0  0  0
    3.3730   -2.4760    5.6880 C   0  0  0  0  0  0  0  0  0  0  0  0
    4.6520   -3.0190    5.6790 O   0  0  0  0  0  0  0  0  0  0  0  0
    2.4450   -2.9450    4.5680 C   0  0  0  0  0  0  0  0  0  0  0  0
    1.8510   -2.0200    3.9420 O   0  0  0  0  0  0  0  0  0  0  0  0
    2.4430   -4.1950    4.3670 O   0  0  0  0  0  1  0  0  0  0  0  0
    6.8910   -3.3040    6.6240 C   0  0  0  0  0  0  0  0  0  0  0  0
    7.4690   -3.7790    7.5910 O   0  0  0  0  0  0  0  0  0  0  0  0
    7.3980   -3.2720    5.3590 O   0  0  0  0  0  0  0  0  0  0  0  0
    9.3720   -3.0130    3.9760 C   0  0  0  0  0  1  0  0  0  0  0  0
    8.6120   -2.5250    5.1950 C   0  0  0  0  0  2  0  0  0  0  0  0
    1.6770   -1.0460    6.6330 O   0  0  0  0  0  0  0  0  0  0  0  0
    1.6790   -0.4510    7.4080 H   0  0  0  0  0  0  0  0  0  0  0  0
  1  2  2  0  0  0  0
  2  3  1  0  0  0  0
  3  4  2  0  0  0  0
  5 16  1  0  0  0  0
  5  3  1  0  0  0  0
  6  5  2  0  0  0  0
  7  6  1  0  0  0  0
  7  1  1  0  0  0  0
  8  6  1  0  0  0  0
  9  8  2  0  0  0  0
 10  8  1  0  0  0  0
 11  1  1  0  0  0  0
 11 12  2  0  0  0  0
 13 11  1  0  0  0  0
 14 15  1  0  0  0  0
 15 13  1  0  0  0  0
 16 17  1  0  0  0  0
M  END
>  <minimizedAffinity>
-4.74113274

$$$$
