
 OpenBabel09122222393D

 17 17  0  0  0  0  0  0  0  0999 V2000
    7.6280   -2.9800    5.8650 C   0  0  0  0  0  0  0  0  0  0  0  0
    8.7550   -2.4880    6.3990 C   0  0  0  0  0  3  0  0  0  0  0  0
    9.9300   -2.3160    5.5350 C   0  0  0  0  0  0  0  0  0  0  0  0
   10.9890   -1.8750    5.9780 O   0  0  0  0  0  0  0  0  0  0  0  0
    9.8030   -2.6840    4.1040 C   0  0  0  0  0  0  0  0  0  0  0  0
    8.6240   -3.1690    3.6970 C   0  0  0  0  0  0  0  0  0  0  0  0
    7.5270   -3.3440    4.5310 O   0  0  0  0  0  0  0  0  0  0  0  0
    8.4150   -3.5620    2.2340 C   0  0  0  0  0  0  0  0  0  0  0  0
    7.7160   -4.6010    2.0540 O   0  0  0  0  0  1  0  0  0  0  0  0
    8.9120   -2.7600    1.3910 O   0  0  0  0  0  0  0  0  0  0  0  0
    6.4070   -3.1760    6.7000 C   0  0  0  0  0  0  0  0  0  0  0  0
    6.1790   -4.1800    7.3610 O   0  0  0  0  0  0  0  0  0  0  0  0
    5.5750   -2.1000    6.6180 O   0  0  0  0  0  0  0  0  0  0  0  0
    3.9040   -2.9670    5.0900 C   0  0  0  0  0  1  0  0  0  0  0  0
    4.1810   -2.4030    6.4720 C   0  0  0  0  0  2  0  0  0  0  0  0
   10.9060   -2.5000    3.2970 O   0  0  0  0  0  0  0  0  0  0  0  0
   11.5970   -2.1430    3.8870 H   0  0  0  0  0  0  0  0  0  0  0  0
  1  2  2  0  0  0  0
  1 11  1  0  0  0  0
  3  4  2  0  0  0  0
  3  2  1  0  0  0  0
  5  3  1  0  0  0  0
  6  5  2  0  0  0  0
  6  7  1  0  0  0  0
  7  1  1  0  0  0  0
  8  6  1  0  0  0  0
  9  8  1  0  0  0  0
 10  8  2  0  0  0  0
 11 12  2  0  0  0  0
 13 11  1  0  0  0  0
 14 15  1  0  0  0  0
 15 13  1  0  0  0  0
 16 17  1  0  0  0  0
 16  5  1  0  0  0  0
M  END
>  <minimizedAffinity>
-4.84578657

$$$$
