
 OpenBabel09122222393D

 17 17  0  0  0  0  0  0  0  0999 V2000
    9.1270   -1.5860    3.2460 C   0  0  0  0  0  0  0  0  0  0  0  0
    9.2340   -2.3610    2.1570 C   0  0  0  0  0  3  0  0  0  0  0  0
    9.4940   -1.7250    0.8590 C   0  0  0  0  0  0  0  0  0  0  0  0
    9.5940   -2.3920   -0.1700 O   0  0  0  0  0  0  0  0  0  0  0  0
    9.6390   -0.2500    0.8220 C   0  0  0  0  0  0  0  0  0  0  0  0
    9.5060    0.4100    1.9790 C   0  0  0  0  0  0  0  0  0  0  0  0
    9.2410   -0.2060    3.1960 O   0  0  0  0  0  0  0  0  0  0  0  0
    9.6520    1.9300    2.0220 C   0  0  0  0  0  0  0  0  0  0  0  0
   10.2560    2.3820    3.0370 O   0  0  0  0  0  1  0  0  0  0  0  0
    9.2080    2.5370    1.0030 O   0  0  0  0  0  0  0  0  0  0  0  0
    8.8620   -2.1830    4.5880 C   0  0  0  0  0  0  0  0  0  0  0  0
    8.7220   -3.3800    4.7920 O   0  0  0  0  0  0  0  0  0  0  0  0
    8.7810   -1.2190    5.5480 O   0  0  0  0  0  0  0  0  0  0  0  0
   10.9890   -0.9280    6.5070 C   0  0  0  0  0  1  0  0  0  0  0  0
    9.5770   -1.4430    6.7200 C   0  0  0  0  0  2  0  0  0  0  0  0
    9.9030    0.3360   -0.3980 O   0  0  0  0  0  0  0  0  0  0  0  0
    9.9340   -0.4040   -1.0350 H   0  0  0  0  0  0  0  0  0  0  0  0
  1 11  1  0  0  0  0
  2  1  2  0  0  0  0
  3  2  1  0  0  0  0
  4  3  2  0  0  0  0
  5  3  1  0  0  0  0
  5  6  2  0  0  0  0
  6  8  1  0  0  0  0
  6  7  1  0  0  0  0
  7  1  1  0  0  0  0
  8  9  1  0  0  0  0
 10  8  2  0  0  0  0
 11 12  2  0  0  0  0
 11 13  1  0  0  0  0
 13 15  1  0  0  0  0
 14 15  1  0  0  0  0
 16  5  1  0  0  0  0
 17 16  1  0  0  0  0
M  END
>  <minimizedAffinity>
-4.80637407

$$$$
