
 OpenBabel09122222393D

 17 17  0  0  0  0  0  0  0  0999 V2000
    9.3650   -0.1020    2.1720 C   0  0  0  0  0  0  0  0  0  0  0  0
    9.3610   -0.8630    1.0680 C   0  0  0  0  0  3  0  0  0  0  0  0
    9.1500   -2.3100    1.2090 C   0  0  0  0  0  0  0  0  0  0  0  0
    9.1450   -3.0530    0.2290 O   0  0  0  0  0  0  0  0  0  0  0  0
    8.9370   -2.8540    2.5710 C   0  0  0  0  0  0  0  0  0  0  0  0
    8.9680   -1.9880    3.5910 C   0  0  0  0  0  0  0  0  0  0  0  0
    9.1880   -0.6240    3.4430 O   0  0  0  0  0  0  0  0  0  0  0  0
    8.7480   -2.4730    5.0240 C   0  0  0  0  0  0  0  0  0  0  0  0
    9.5170   -1.9600    5.8870 O   0  0  0  0  0  1  0  0  0  0  0  0
    7.7790   -3.2750    5.1710 O   0  0  0  0  0  0  0  0  0  0  0  0
    9.5770    1.3730    2.0830 C   0  0  0  0  0  0  0  0  0  0  0  0
    9.8510    1.9680    1.0510 O   0  0  0  0  0  0  0  0  0  0  0  0
    9.4390    1.9650    3.3030 O   0  0  0  0  0  0  0  0  0  0  0  0
   10.1990    3.7800    4.7190 C   0  0  0  0  0  1  0  0  0  0  0  0
   10.6020    2.6440    3.7980 C   0  0  0  0  0  2  0  0  0  0  0  0
    8.7200   -4.2110    2.6910 O   0  0  0  0  0  0  0  0  0  0  0  0
    8.7630   -4.5570    1.7790 H   0  0  0  0  0  0  0  0  0  0  0  0
  1  7  1  0  0  0  0
  2  3  1  0  0  0  0
  2  1  2  0  0  0  0
  3  5  1  0  0  0  0
  4  3  2  0  0  0  0
  5 16  1  0  0  0  0
  5  6  2  0  0  0  0
  6  8  1  0  0  0  0
  7  6  1  0  0  0  0
  8 10  2  0  0  0  0
  8  9  1  0  0  0  0
 11  1  1  0  0  0  0
 11 13  1  0  0  0  0
 12 11  2  0  0  0  0
 13 15  1  0  0  0  0
 15 14  1  0  0  0  0
 17 16  1  0  0  0  0
M  END
>  <minimizedAffinity>
-5.10261011

$$$$
