
 OpenBabel09122222393D

 17 17  0  0  0  0  0  0  0  0999 V2000
    9.4890   -3.2760    0.9130 C   0  0  0  0  0  0  0  0  0  0  0  0
    8.3730   -4.0140    0.9950 C   0  0  0  0  0  3  0  0  0  0  0  0
    7.6420   -4.0500    2.2680 C   0  0  0  0  0  0  0  0  0  0  0  0
    6.6170   -4.7160    2.3980 O   0  0  0  0  0  0  0  0  0  0  0  0
    8.1720   -3.2510    3.3990 C   0  0  0  0  0  0  0  0  0  0  0  0
    9.2990   -2.5600    3.1890 C   0  0  0  0  0  0  0  0  0  0  0  0
    9.9900   -2.5520    1.9830 O   0  0  0  0  0  0  0  0  0  0  0  0
    9.9010   -1.7060    4.3040 C   0  0  0  0  0  0  0  0  0  0  0  0
    9.2260   -0.6840    4.6200 O   0  0  0  0  0  0  0  0  0  0  0  0
   10.9640   -2.1690    4.8140 O   0  0  0  0  0  1  0  0  0  0  0  0
   10.2700   -3.2080   -0.3580 C   0  0  0  0  0  0  0  0  0  0  0  0
   10.2720   -4.0830   -1.2110 O   0  0  0  0  0  0  0  0  0  0  0  0
   10.9890   -2.0530   -0.4330 O   0  0  0  0  0  0  0  0  0  0  0  0
   10.2940    0.2370   -0.8200 C   0  0  0  0  0  1  0  0  0  0  0  0
   10.5640   -1.1220   -1.4380 C   0  0  0  0  0  2  0  0  0  0  0  0
    7.4680   -3.2750    4.5850 O   0  0  0  0  0  0  0  0  0  0  0  0
    6.7090   -3.8670    4.4180 H   0  0  0  0  0  0  0  0  0  0  0  0
  1  2  2  0  0  0  0
  1  7  1  0  0  0  0
  2  3  1  0  0  0  0
  3  4  2  0  0  0  0
  3  5  1  0  0  0  0
  5 16  1  0  0  0  0
  6  5  2  0  0  0  0
  6  8  1  0  0  0  0
  7  6  1  0  0  0  0
  8  9  2  0  0  0  0
  8 10  1  0  0  0  0
 11  1  1  0  0  0  0
 12 11  2  0  0  0  0
 13 11  1  0  0  0  0
 15 14  1  0  0  0  0
 15 13  1  0  0  0  0
 17 16  1  0  0  0  0
M  END
>  <minimizedAffinity>
-5.28023672

$$$$
