
 OpenBabel09122222393D

 16 16  0  0  0  0  0  0  0  0999 V2000
   10.2330    1.9980    0.3480 C   0  0  0  0  0  0  0  0  0  0  0  0
    9.6650    1.5620    1.4820 C   0  0  0  0  0  3  0  0  0  0  0  0
    9.3780    0.1280    1.6290 C   0  0  0  0  0  0  0  0  0  0  0  0
    8.8670   -0.3260    2.6510 O   0  0  0  0  0  0  0  0  0  0  0  0
    9.7110   -0.7650    0.4910 C   0  0  0  0  0  0  0  0  0  0  0  0
   10.2720   -0.2050   -0.5890 C   0  0  0  0  0  0  0  0  0  0  0  0
   10.5580    1.1480   -0.6970 O   0  0  0  0  0  0  0  0  0  0  0  0
   10.6320   -1.0500   -1.8110 C   0  0  0  0  0  0  0  0  0  0  0  0
   10.4020   -0.5030   -2.9300 O   0  0  0  0  0  0  0  0  0  0  0  0
   11.0240   -2.2250   -1.5520 O   0  0  0  0  0  1  0  0  0  0  0  0
    9.4160   -2.1060    0.6240 O   0  0  0  0  0  0  0  0  0  0  0  0
    9.0290   -2.1890    1.5160 H   0  0  0  0  0  0  0  0  0  0  0  0
   10.5530    3.4400    0.0590 C   0  0  0  0  0  2  0  0  0  0  0  0
    9.3840    4.2680    0.0560 O   0  0  0  0  0  0  0  0  0  0  0  0
    9.0360    6.5460   -0.7000 C   0  0  0  0  0  1  0  0  0  0  0  0
    9.6660    5.6390    0.3410 C   0  0  0  0  0  2  0  0  0  0  0  0
  1  2  2  0  0  0  0
  2  3  1  0  0  0  0
  3  4  2  0  0  0  0
  5 11  1  0  0  0  0
  5  3  1  0  0  0  0
  6  5  2  0  0  0  0
  7  6  1  0  0  0  0
  7  1  1  0  0  0  0
  8 10  1  0  0  0  0
  8  6  1  0  0  0  0
  9  8  2  0  0  0  0
 11 12  1  0  0  0  0
 13  1  1  0  0  0  0
 14 13  1  0  0  0  0
 14 16  1  0  0  0  0
 15 16  1  0  0  0  0
M  END
>  <minimizedAffinity>
-5.02811146

$$$$
