
 OpenBabel09122222393D

 16 16  0  0  0  0  0  0  0  0999 V2000
    9.8030    8.8210   -1.2420 C   0  0  0  0  0  0  0  0  0  0  0  0
    9.4030    9.7670   -0.3800 C   0  0  0  0  0  3  0  0  0  0  0  0
    9.1390    9.3930    1.0170 C   0  0  0  0  0  0  0  0  0  0  0  0
    8.7790   10.2230    1.8500 O   0  0  0  0  0  0  0  0  0  0  0  0
    9.3070    7.9670    1.3950 C   0  0  0  0  0  0  0  0  0  0  0  0
    9.7080    7.1190    0.4400 C   0  0  0  0  0  0  0  0  0  0  0  0
    9.9760    7.4970   -0.8670 O   0  0  0  0  0  0  0  0  0  0  0  0
    9.8900    5.6310    0.7400 C   0  0  0  0  0  0  0  0  0  0  0  0
    9.1460    4.8530    0.0750 O   0  0  0  0  0  0  0  0  0  0  0  0
   10.6930    5.3700    1.6840 O   0  0  0  0  0  1  0  0  0  0  0  0
    9.0340    7.6170    2.7010 O   0  0  0  0  0  0  0  0  0  0  0  0
    8.7770    8.4530    3.1350 H   0  0  0  0  0  0  0  0  0  0  0  0
   10.0780    9.0640   -2.7010 C   0  0  0  0  0  2  0  0  0  0  0  0
    9.1440    8.3900   -3.5520 O   0  0  0  0  0  0  0  0  0  0  0  0
    7.7470    8.4280   -5.5350 C   0  0  0  0  0  1  0  0  0  0  0  0
    8.8400    9.1210   -4.7410 C   0  0  0  0  0  2  0  0  0  0  0  0
  1  7  1  0  0  0  0
  1  2  2  0  0  0  0
  2  3  1  0  0  0  0
  3  5  1  0  0  0  0
  3  4  2  0  0  0  0
  5 11  1  0  0  0  0
  6  8  1  0  0  0  0
  6  5  2  0  0  0  0
  7  6  1  0  0  0  0
  8 10  1  0  0  0  0
  9  8  2  0  0  0  0
 11 12  1  0  0  0  0
 13  1  1  0  0  0  0
 14 13  1  0  0  0  0
 15 16  1  0  0  0  0
 16 14  1  0  0  0  0
M  END
>  <minimizedAffinity>
-4.74674129

$$$$
