
 OpenBabel09122222393D

 16 16  0  0  0  0  0  0  0  0999 V2000
    8.7610   -2.6250    1.9710 C   0  0  0  0  0  0  0  0  0  0  0  0
    9.2370   -3.2700    0.8960 C   0  0  0  0  0  3  0  0  0  0  0  0
    9.8980   -2.4950   -0.1640 C   0  0  0  0  0  0  0  0  0  0  0  0
   10.3610   -3.0380   -1.1660 O   0  0  0  0  0  0  0  0  0  0  0  0
    9.9790   -1.0220    0.0020 C   0  0  0  0  0  0  0  0  0  0  0  0
    9.4610   -0.4990    1.1210 C   0  0  0  0  0  0  0  0  0  0  0  0
    8.8640   -1.2510    2.1210 O   0  0  0  0  0  0  0  0  0  0  0  0
    9.4880    1.0100    1.3640 C   0  0  0  0  0  0  0  0  0  0  0  0
   10.1900    1.6750    0.5470 O   0  0  0  0  0  0  0  0  0  0  0  0
    8.8830    1.3940    2.4080 O   0  0  0  0  0  1  0  0  0  0  0  0
   10.5770   -0.2980   -1.0080 O   0  0  0  0  0  0  0  0  0  0  0  0
   10.8510   -0.9650   -1.6660 H   0  0  0  0  0  0  0  0  0  0  0  0
    8.0400   -3.2930    3.1110 C   0  0  0  0  0  2  0  0  0  0  0  0
    7.0380   -4.2100    2.6600 O   0  0  0  0  0  0  0  0  0  0  0  0
    4.6760   -4.7600    2.5740 C   0  0  0  0  0  1  0  0  0  0  0  0
    5.7850   -4.0450    3.3260 C   0  0  0  0  0  2  0  0  0  0  0  0
  1  7  1  0  0  0  0
  1 13  1  0  0  0  0
  2  1  2  0  0  0  0
  3  5  1  0  0  0  0
  3  2  1  0  0  0  0
  4  3  2  0  0  0  0
  5  6  2  0  0  0  0
  6  8  1  0  0  0  0
  6  7  1  0  0  0  0
  8 10  1  0  0  0  0
  9  8  2  0  0  0  0
 11  5  1  0  0  0  0
 12 11  1  0  0  0  0
 14 13  1  0  0  0  0
 14 16  1  0  0  0  0
 15 16  1  0  0  0  0
M  END
>  <minimizedAffinity>
-4.65982056

$$$$
