
 OpenBabel09122222393D

 16 16  0  0  0  0  0  0  0  0999 V2000
    8.9880   -2.5330    1.7410 C   0  0  0  0  0  0  0  0  0  0  0  0
    9.4880   -3.1300    0.6490 C   0  0  0  0  0  3  0  0  0  0  0  0
   10.1150   -2.3020   -0.3910 C   0  0  0  0  0  0  0  0  0  0  0  0
   10.5970   -2.8000   -1.4080 O   0  0  0  0  0  0  0  0  0  0  0  0
   10.1360   -0.8320   -0.1870 C   0  0  0  0  0  0  0  0  0  0  0  0
    9.5990   -0.3590    0.9450 C   0  0  0  0  0  0  0  0  0  0  0  0
    9.0350   -1.1600    1.9260 O   0  0  0  0  0  0  0  0  0  0  0  0
    9.5640    1.1430    1.2270 C   0  0  0  0  0  0  0  0  0  0  0  0
   10.3380    1.8430    0.5100 O   0  0  0  0  0  0  0  0  0  0  0  0
    8.8390    1.4870    2.2060 O   0  0  0  0  0  1  0  0  0  0  0  0
   10.7020   -0.0580   -1.1790 O   0  0  0  0  0  0  0  0  0  0  0  0
   11.0010   -0.6960   -1.8540 H   0  0  0  0  0  0  0  0  0  0  0  0
    8.2980   -3.2590    2.8640 C   0  0  0  0  0  2  0  0  0  0  0  0
    9.1360   -3.4030    4.0160 O   0  0  0  0  0  0  0  0  0  0  0  0
    9.7150   -1.4500    5.3330 C   0  0  0  0  0  1  0  0  0  0  0  0
    8.7290   -2.5840    5.1130 C   0  0  0  0  0  2  0  0  0  0  0  0
  1  7  1  0  0  0  0
  1 13  1  0  0  0  0
  2  1  2  0  0  0  0
  3  5  1  0  0  0  0
  3  2  1  0  0  0  0
  4  3  2  0  0  0  0
  5  6  2  0  0  0  0
  6  8  1  0  0  0  0
  6  7  1  0  0  0  0
  8 10  1  0  0  0  0
  9  8  2  0  0  0  0
 11  5  1  0  0  0  0
 12 11  1  0  0  0  0
 13 14  1  0  0  0  0
 14 16  1  0  0  0  0
 16 15  1  0  0  0  0
M  END
>  <minimizedAffinity>
-4.60848236

$$$$
