
 OpenBabel09122222393D

 16 16  0  0  0  0  0  0  0  0999 V2000
    9.8070    8.1870   -1.1770 C   0  0  0  0  0  0  0  0  0  0  0  0
    9.9700    6.8790   -0.9290 C   0  0  0  0  0  3  0  0  0  0  0  0
    9.8450    6.3950    0.4540 C   0  0  0  0  0  0  0  0  0  0  0  0
    9.9760    5.2050    0.7340 O   0  0  0  0  0  0  0  0  0  0  0  0
    9.5670    7.3950    1.5150 C   0  0  0  0  0  0  0  0  0  0  0  0
    9.4290    8.6720    1.1370 C   0  0  0  0  0  0  0  0  0  0  0  0
    9.5270    9.1050   -0.1770 O   0  0  0  0  0  0  0  0  0  0  0  0
    9.1580    9.7690    2.1690 C   0  0  0  0  0  0  0  0  0  0  0  0
    9.8800   10.8030    2.0570 O   0  0  0  0  0  0  0  0  0  0  0  0
    8.3150    9.4650    3.0630 O   0  0  0  0  0  1  0  0  0  0  0  0
    9.4760    6.9390    2.8140 O   0  0  0  0  0  0  0  0  0  0  0  0
    9.6150    5.9750    2.7500 H   0  0  0  0  0  0  0  0  0  0  0  0
    9.9360    8.8150   -2.5380 C   0  0  0  0  0  2  0  0  0  0  0  0
    8.9510    8.3320   -3.4570 O   0  0  0  0  0  0  0  0  0  0  0  0
    7.7770    8.5790   -5.5650 C   0  0  0  0  0  1  0  0  0  0  0  0
    8.8530    9.1220   -4.6430 C   0  0  0  0  0  2  0  0  0  0  0  0
  1  2  2  0  0  0  0
  1  7  1  0  0  0  0
  2  3  1  0  0  0  0
  3  4  2  0  0  0  0
  3  5  1  0  0  0  0
  5 11  1  0  0  0  0
  6  5  2  0  0  0  0
  6  8  1  0  0  0  0
  7  6  1  0  0  0  0
  8 10  1  0  0  0  0
  9  8  2  0  0  0  0
 12 11  1  0  0  0  0
 13  1  1  0  0  0  0
 14 13  1  0  0  0  0
 15 16  1  0  0  0  0
 16 14  1  0  0  0  0
M  END
>  <minimizedAffinity>
-4.60688019

$$$$
