
 OpenBabel09122220003D

 16 16  0  0  0  0  0  0  0  0999 V2000
    9.4890   -0.5370    0.8900 C   0  0  0  0  0  0  0  0  0  0  0  0
   10.1680   -0.9510   -0.1890 C   0  0  0  0  0  3  0  0  0  0  0  0
   10.2360   -2.3900   -0.4790 C   0  0  0  0  0  0  0  0  0  0  0  0
   10.8380   -2.8230   -1.4610 O   0  0  0  0  0  0  0  0  0  0  0  0
    9.5640   -3.3190    0.4640 C   0  0  0  0  0  0  0  0  0  0  0  0
    8.9210   -2.7800    1.5070 C   0  0  0  0  0  0  0  0  0  0  0  0
    8.8480   -1.4160    1.7490 O   0  0  0  0  0  0  0  0  0  0  0  0
    8.2160   -3.6650    2.5350 C   0  0  0  0  0  0  0  0  0  0  0  0
    8.4700   -3.3910    3.7450 O   0  0  0  0  0  1  0  0  0  0  0  0
    7.5460   -4.6210    2.0470 O   0  0  0  0  0  0  0  0  0  0  0  0
    9.6530   -4.6710    0.2010 O   0  0  0  0  0  0  0  0  0  0  0  0
   10.1740   -4.7310   -0.6230 H   0  0  0  0  0  0  0  0  0  0  0  0
    9.3650    0.9010    1.3150 C   0  0  0  0  0  2  0  0  0  0  0  0
    9.2580    1.0430    2.7360 O   0  0  0  0  0  0  0  0  0  0  0  0
   10.7350    2.8910    2.2000 C   0  0  0  0  0  1  0  0  0  0  0  0
   10.2010    1.9680    3.2800 C   0  0  0  0  0  2  0  0  0  0  0  0
  1 13  1  0  0  0  0
  1  7  1  0  0  0  0
  2  1  2  0  0  0  0
  3  2  1  0  0  0  0
  3  5  1  0  0  0  0
  4  3  2  0  0  0  0
  5  6  2  0  0  0  0
  6  7  1  0  0  0  0
  6  8  1  0  0  0  0
  8  9  1  0  0  0  0
 10  8  2  0  0  0  0
 11  5  1  0  0  0  0
 12 11  1  0  0  0  0
 13 14  1  0  0  0  0
 14 16  1  0  0  0  0
 15 16  1  0  0  0  0
M  END
>  <minimizedAffinity>
-5.51041889

$$$$

 OpenBabel09122220003D

 16 16  0  0  0  0  0  0  0  0999 V2000
    9.2440   -0.6870    1.6260 C   0  0  0  0  0  0  0  0  0  0  0  0
    8.6790   -1.5950    2.4340 C   0  0  0  0  0  3  0  0  0  0  0  0
    8.7530   -3.0170    2.0690 C   0  0  0  0  0  0  0  0  0  0  0  0
    8.2590   -3.8910    2.7800 O   0  0  0  0  0  0  0  0  0  0  0  0
    9.4330   -3.3710    0.7990 C   0  0  0  0  0  0  0  0  0  0  0  0
    9.9540   -2.3700    0.0780 C   0  0  0  0  0  0  0  0  0  0  0  0
    9.8950   -1.0360    0.4530 O   0  0  0  0  0  0  0  0  0  0  0  0
   10.6580   -2.6460   -1.2510 C   0  0  0  0  0  0  0  0  0  0  0  0
   10.6980   -1.6660   -2.0520 O   0  0  0  0  0  0  0  0  0  0  0  0
   11.0240   -3.8450   -1.4230 O   0  0  0  0  0  1  0  0  0  0  0  0
    9.4770   -4.7050    0.4480 O   0  0  0  0  0  0  0  0  0  0  0  0
    9.0220   -5.1700    1.1770 H   0  0  0  0  0  0  0  0  0  0  0  0
    9.2170    0.7980    1.8670 C   0  0  0  0  0  2  0  0  0  0  0  0
    9.5360    1.1360    3.2220 O   0  0  0  0  0  0  0  0  0  0  0  0
   10.6840    2.8690    1.9700 C   0  0  0  0  0  1  0  0  0  0  0  0
   10.2680    2.3580    3.3380 C   0  0  0  0  0  2  0  0  0  0  0  0
  1 13  1  0  0  0  0
  1  2  2  0  0  0  0
  3  2  1  0  0  0  0
  3  4  2  0  0  0  0
  5  3  1  0  0  0  0
  6  7  1  0  0  0  0
  6  5  2  0  0  0  0
  7  1  1  0  0  0  0
  8  6  1  0  0  0  0
  9  8  2  0  0  0  0
 10  8  1  0  0  0  0
 11  5  1  0  0  0  0
 11 12  1  0  0  0  0
 13 14  1  0  0  0  0
 14 16  1  0  0  0  0
 15 16  1  0  0  0  0
M  END
>  <minimizedAffinity>
-5.34582806

$$$$

 OpenBabel09122220003D

 16 16  0  0  0  0  0  0  0  0999 V2000
   10.2330    1.9980    0.3480 C   0  0  0  0  0  0  0  0  0  0  0  0
    9.6650    1.5620    1.4820 C   0  0  0  0  0  3  0  0  0  0  0  0
    9.3780    0.1280    1.6290 C   0  0  0  0  0  0  0  0  0  0  0  0
    8.8670   -0.3260    2.6510 O   0  0  0  0  0  0  0  0  0  0  0  0
    9.7110   -0.7650    0.4910 C   0  0  0  0  0  0  0  0  0  0  0  0
   10.2720   -0.2050   -0.5890 C   0  0  0  0  0  0  0  0  0  0  0  0
   10.5580    1.1480   -0.6970 O   0  0  0  0  0  0  0  0  0  0  0  0
   10.6320   -1.0500   -1.8110 C   0  0  0  0  0  0  0  0  0  0  0  0
   10.4020   -0.5030   -2.9300 O   0  0  0  0  0  0  0  0  0  0  0  0
   11.0240   -2.2250   -1.5520 O   0  0  0  0  0  1  0  0  0  0  0  0
    9.4160   -2.1060    0.6240 O   0  0  0  0  0  0  0  0  0  0  0  0
    9.0290   -2.1890    1.5160 H   0  0  0  0  0  0  0  0  0  0  0  0
   10.5530    3.4400    0.0590 C   0  0  0  0  0  2  0  0  0  0  0  0
    9.3840    4.2680    0.0560 O   0  0  0  0  0  0  0  0  0  0  0  0
    9.0360    6.5460   -0.7000 C   0  0  0  0  0  1  0  0  0  0  0  0
    9.6660    5.6390    0.3410 C   0  0  0  0  0  2  0  0  0  0  0  0
  1  2  2  0  0  0  0
  2  3  1  0  0  0  0
  3  4  2  0  0  0  0
  5 11  1  0  0  0  0
  5  3  1  0  0  0  0
  6  5  2  0  0  0  0
  7  6  1  0  0  0  0
  7  1  1  0  0  0  0
  8 10  1  0  0  0  0
  8  6  1  0  0  0  0
  9  8  2  0  0  0  0
 11 12  1  0  0  0  0
 13  1  1  0  0  0  0
 14 13  1  0  0  0  0
 14 16  1  0  0  0  0
 15 16  1  0  0  0  0
M  END
>  <minimizedAffinity>
-5.02811146

$$$$

 OpenBabel09122220003D

 16 16  0  0  0  0  0  0  0  0999 V2000
    9.4900   -0.7650    1.2190 C   0  0  0  0  0  0  0  0  0  0  0  0
    9.0010   -1.0600    2.4320 C   0  0  0  0  0  3  0  0  0  0  0  0
    8.6350   -2.4520    2.7340 C   0  0  0  0  0  0  0  0  0  0  0  0
    8.1910   -2.7780    3.8330 O   0  0  0  0  0  0  0  0  0  0  0  0
    8.8050   -3.4600    1.6580 C   0  0  0  0  0  0  0  0  0  0  0  0
    9.3000   -3.0370    0.4880 C   0  0  0  0  0  0  0  0  0  0  0  0
    9.6620   -1.7230    0.2320 O   0  0  0  0  0  0  0  0  0  0  0  0
    9.4910   -4.0070   -0.6780 C   0  0  0  0  0  0  0  0  0  0  0  0
   10.6410   -3.9910   -1.2090 O   0  0  0  0  0  0  0  0  0  0  0  0
    8.4490   -4.6340   -1.0280 O   0  0  0  0  0  1  0  0  0  0  0  0
    8.4360   -4.7600    1.9380 O   0  0  0  0  0  0  0  0  0  0  0  0
    8.1270   -4.7380    2.8640 H   0  0  0  0  0  0  0  0  0  0  0  0
    9.8760    0.6200    0.7730 C   0  0  0  0  0  2  0  0  0  0  0  0
    9.3600    1.6350    1.6420 O   0  0  0  0  0  0  0  0  0  0  0  0
   10.2880    2.6590    3.6350 C   0  0  0  0  0  1  0  0  0  0  0  0
   10.3680    2.5250    2.1250 C   0  0  0  0  0  2  0  0  0  0  0  0
  1  2  2  0  0  0  0
  2  3  1  0  0  0  0
  3  4  2  0  0  0  0
  5 11  1  0  0  0  0
  5  3  1  0  0  0  0
  6  5  2  0  0  0  0
  7  6  1  0  0  0  0
  7  1  1  0  0  0  0
  8  6  1  0  0  0  0
  9  8  2  0  0  0  0
 10  8  1  0  0  0  0
 11 12  1  0  0  0  0
 13  1  1  0  0  0  0
 13 14  1  0  0  0  0
 14 16  1  0  0  0  0
 16 15  1  0  0  0  0
M  END
>  <minimizedAffinity>
-5.0203495

$$$$

 OpenBabel09122220003D

 16 16  0  0  0  0  0  0  0  0999 V2000
    9.3440   -2.1550    2.7750 C   0  0  0  0  0  0  0  0  0  0  0  0
    9.1610   -0.8300    2.8600 C   0  0  0  0  0  3  0  0  0  0  0  0
    9.3350   -0.0080    1.6530 C   0  0  0  0  0  0  0  0  0  0  0  0
    9.1710    1.2110    1.6730 O   0  0  0  0  0  0  0  0  0  0  0  0
    9.7340   -0.6960    0.4000 C   0  0  0  0  0  0  0  0  0  0  0  0
    9.8890   -2.0250    0.4480 C   0  0  0  0  0  0  0  0  0  0  0  0
    9.6950   -2.7850    1.5910 O   0  0  0  0  0  0  0  0  0  0  0  0
   10.3150   -2.8090   -0.7940 C   0  0  0  0  0  0  0  0  0  0  0  0
   10.9530   -2.1410   -1.6600 O   0  0  0  0  0  0  0  0  0  0  0  0
    9.8920   -4.0010   -0.8440 O   0  0  0  0  0  1  0  0  0  0  0  0
    9.9210    0.0830   -0.7240 O   0  0  0  0  0  0  0  0  0  0  0  0
    9.7250    0.9940   -0.4320 H   0  0  0  0  0  0  0  0  0  0  0  0
    9.2240   -3.1040    3.9370 C   0  0  0  0  0  2  0  0  0  0  0  0
    7.8940   -3.6100    4.0940 O   0  0  0  0  0  0  0  0  0  0  0  0
    5.8080   -3.5990    5.3330 C   0  0  0  0  0  1  0  0  0  0  0  0
    7.2630   -3.1660    5.2960 C   0  0  0  0  0  2  0  0  0  0  0  0
  1  2  2  0  0  0  0
  1 13  1  0  0  0  0
  3  4  2  0  0  0  0
  3  2  1  0  0  0  0
  5  6  2  0  0  0  0
  5  3  1  0  0  0  0
  6  7  1  0  0  0  0
  7  1  1  0  0  0  0
  8  6  1  0  0  0  0
  9  8  2  0  0  0  0
 10  8  1  0  0  0  0
 11 12  1  0  0  0  0
 11  5  1  0  0  0  0
 13 14  1  0  0  0  0
 14 16  1  0  0  0  0
 16 15  1  0  0  0  0
M  END
>  <minimizedAffinity>
-4.79233122

$$$$

 OpenBabel09122220003D

 16 16  0  0  0  0  0  0  0  0999 V2000
    9.8030    8.8210   -1.2420 C   0  0  0  0  0  0  0  0  0  0  0  0
    9.4030    9.7670   -0.3800 C   0  0  0  0  0  3  0  0  0  0  0  0
    9.1390    9.3930    1.0170 C   0  0  0  0  0  0  0  0  0  0  0  0
    8.7790   10.2230    1.8500 O   0  0  0  0  0  0  0  0  0  0  0  0
    9.3070    7.9670    1.3950 C   0  0  0  0  0  0  0  0  0  0  0  0
    9.7080    7.1190    0.4400 C   0  0  0  0  0  0  0  0  0  0  0  0
    9.9760    7.4970   -0.8670 O   0  0  0  0  0  0  0  0  0  0  0  0
    9.8900    5.6310    0.7400 C   0  0  0  0  0  0  0  0  0  0  0  0
    9.1460    4.8530    0.0750 O   0  0  0  0  0  0  0  0  0  0  0  0
   10.6930    5.3700    1.6840 O   0  0  0  0  0  1  0  0  0  0  0  0
    9.0340    7.6170    2.7010 O   0  0  0  0  0  0  0  0  0  0  0  0
    8.7770    8.4530    3.1350 H   0  0  0  0  0  0  0  0  0  0  0  0
   10.0780    9.0640   -2.7010 C   0  0  0  0  0  2  0  0  0  0  0  0
    9.1440    8.3900   -3.5520 O   0  0  0  0  0  0  0  0  0  0  0  0
    7.7470    8.4280   -5.5350 C   0  0  0  0  0  1  0  0  0  0  0  0
    8.8400    9.1210   -4.7410 C   0  0  0  0  0  2  0  0  0  0  0  0
  1  7  1  0  0  0  0
  1  2  2  0  0  0  0
  2  3  1  0  0  0  0
  3  5  1  0  0  0  0
  3  4  2  0  0  0  0
  5 11  1  0  0  0  0
  6  8  1  0  0  0  0
  6  5  2  0  0  0  0
  7  6  1  0  0  0  0
  8 10  1  0  0  0  0
  9  8  2  0  0  0  0
 11 12  1  0  0  0  0
 13  1  1  0  0  0  0
 14 13  1  0  0  0  0
 15 16  1  0  0  0  0
 16 14  1  0  0  0  0
M  END
>  <minimizedAffinity>
-4.74674129

$$$$

 OpenBabel09122220003D

 16 16  0  0  0  0  0  0  0  0999 V2000
    8.7610   -2.6250    1.9710 C   0  0  0  0  0  0  0  0  0  0  0  0
    9.2370   -3.2700    0.8960 C   0  0  0  0  0  3  0  0  0  0  0  0
    9.8980   -2.4950   -0.1640 C   0  0  0  0  0  0  0  0  0  0  0  0
   10.3610   -3.0380   -1.1660 O   0  0  0  0  0  0  0  0  0  0  0  0
    9.9790   -1.0220    0.0020 C   0  0  0  0  0  0  0  0  0  0  0  0
    9.4610   -0.4990    1.1210 C   0  0  0  0  0  0  0  0  0  0  0  0
    8.8640   -1.2510    2.1210 O   0  0  0  0  0  0  0  0  0  0  0  0
    9.4880    1.0100    1.3640 C   0  0  0  0  0  0  0  0  0  0  0  0
   10.1900    1.6750    0.5470 O   0  0  0  0  0  0  0  0  0  0  0  0
    8.8830    1.3940    2.4080 O   0  0  0  0  0  1  0  0  0  0  0  0
   10.5770   -0.2980   -1.0080 O   0  0  0  0  0  0  0  0  0  0  0  0
   10.8510   -0.9650   -1.6660 H   0  0  0  0  0  0  0  0  0  0  0  0
    8.0400   -3.2930    3.1110 C   0  0  0  0  0  2  0  0  0  0  0  0
    7.0380   -4.2100    2.6600 O   0  0  0  0  0  0  0  0  0  0  0  0
    4.6760   -4.7600    2.5740 C   0  0  0  0  0  1  0  0  0  0  0  0
    5.7850   -4.0450    3.3260 C   0  0  0  0  0  2  0  0  0  0  0  0
  1  7  1  0  0  0  0
  1 13  1  0  0  0  0
  2  1  2  0  0  0  0
  3  5  1  0  0  0  0
  3  2  1  0  0  0  0
  4  3  2  0  0  0  0
  5  6  2  0  0  0  0
  6  8  1  0  0  0  0
  6  7  1  0  0  0  0
  8 10  1  0  0  0  0
  9  8  2  0  0  0  0
 11  5  1  0  0  0  0
 12 11  1  0  0  0  0
 14 13  1  0  0  0  0
 14 16  1  0  0  0  0
 15 16  1  0  0  0  0
M  END
>  <minimizedAffinity>
-4.65982056

$$$$

 OpenBabel09122220003D

 16 16  0  0  0  0  0  0  0  0999 V2000
   10.1000    5.5120    0.9320 C   0  0  0  0  0  0  0  0  0  0  0  0
    9.7120    5.6860   -0.3400 C   0  0  0  0  0  3  0  0  0  0  0  0
    9.1500    6.9840   -0.7430 C   0  0  0  0  0  0  0  0  0  0  0  0
    8.7880    7.1980   -1.8980 O   0  0  0  0  0  0  0  0  0  0  0  0
    9.0180    8.0340    0.2980 C   0  0  0  0  0  0  0  0  0  0  0  0
    9.4390    7.7340    1.5330 C   0  0  0  0  0  0  0  0  0  0  0  0
    9.9890    6.5110    1.8870 O   0  0  0  0  0  0  0  0  0  0  0  0
    9.3240    8.7520    2.6680 C   0  0  0  0  0  0  0  0  0  0  0  0
   10.4210    9.0880    3.2030 O   0  0  0  0  0  1  0  0  0  0  0  0
    8.1390    9.0570    2.9940 O   0  0  0  0  0  0  0  0  0  0  0  0
    8.4670    9.2410   -0.0800 O   0  0  0  0  0  0  0  0  0  0  0  0
    8.2750    9.1410   -1.0320 H   0  0  0  0  0  0  0  0  0  0  0  0
   10.6630    4.2290    1.4790 C   0  0  0  0  0  2  0  0  0  0  0  0
    9.8670    3.0910    1.1290 O   0  0  0  0  0  0  0  0  0  0  0  0
    9.1930    0.8130    1.6200 C   0  0  0  0  0  1  0  0  0  0  0  0
    9.8800    2.0690    2.1270 C   0  0  0  0  0  2  0  0  0  0  0  0
  1 13  1  0  0  0  0
  1  7  1  0  0  0  0
  2  1  2  0  0  0  0
  3  2  1  0  0  0  0
  3  5  1  0  0  0  0
  4  3  2  0  0  0  0
  5  6  2  0  0  0  0
  6  7  1  0  0  0  0
  6  8  1  0  0  0  0
  8 10  2  0  0  0  0
  8  9  1  0  0  0  0
 11  5  1  0  0  0  0
 12 11  1  0  0  0  0
 14 13  1  0  0  0  0
 14 16  1  0  0  0  0
 15 16  1  0  0  0  0
M  END
>  <minimizedAffinity>
-4.65341902

$$$$

 OpenBabel09122220003D

 16 16  0  0  0  0  0  0  0  0999 V2000
    8.9880   -2.5330    1.7410 C   0  0  0  0  0  0  0  0  0  0  0  0
    9.4880   -3.1300    0.6490 C   0  0  0  0  0  3  0  0  0  0  0  0
   10.1150   -2.3020   -0.3910 C   0  0  0  0  0  0  0  0  0  0  0  0
   10.5970   -2.8000   -1.4080 O   0  0  0  0  0  0  0  0  0  0  0  0
   10.1360   -0.8320   -0.1870 C   0  0  0  0  0  0  0  0  0  0  0  0
    9.5990   -0.3590    0.9450 C   0  0  0  0  0  0  0  0  0  0  0  0
    9.0350   -1.1600    1.9260 O   0  0  0  0  0  0  0  0  0  0  0  0
    9.5640    1.1430    1.2270 C   0  0  0  0  0  0  0  0  0  0  0  0
   10.3380    1.8430    0.5100 O   0  0  0  0  0  0  0  0  0  0  0  0
    8.8390    1.4870    2.2060 O   0  0  0  0  0  1  0  0  0  0  0  0
   10.7020   -0.0580   -1.1790 O   0  0  0  0  0  0  0  0  0  0  0  0
   11.0010   -0.6960   -1.8540 H   0  0  0  0  0  0  0  0  0  0  0  0
    8.2980   -3.2590    2.8640 C   0  0  0  0  0  2  0  0  0  0  0  0
    9.1360   -3.4030    4.0160 O   0  0  0  0  0  0  0  0  0  0  0  0
    9.7150   -1.4500    5.3330 C   0  0  0  0  0  1  0  0  0  0  0  0
    8.7290   -2.5840    5.1130 C   0  0  0  0  0  2  0  0  0  0  0  0
  1  7  1  0  0  0  0
  1 13  1  0  0  0  0
  2  1  2  0  0  0  0
  3  5  1  0  0  0  0
  3  2  1  0  0  0  0
  4  3  2  0  0  0  0
  5  6  2  0  0  0  0
  6  8  1  0  0  0  0
  6  7  1  0  0  0  0
  8 10  1  0  0  0  0
  9  8  2  0  0  0  0
 11  5  1  0  0  0  0
 12 11  1  0  0  0  0
 13 14  1  0  0  0  0
 14 16  1  0  0  0  0
 16 15  1  0  0  0  0
M  END
>  <minimizedAffinity>
-4.60848236

$$$$

 OpenBabel09122220003D

 16 16  0  0  0  0  0  0  0  0999 V2000
    9.8070    8.1870   -1.1770 C   0  0  0  0  0  0  0  0  0  0  0  0
    9.9700    6.8790   -0.9290 C   0  0  0  0  0  3  0  0  0  0  0  0
    9.8450    6.3950    0.4540 C   0  0  0  0  0  0  0  0  0  0  0  0
    9.9760    5.2050    0.7340 O   0  0  0  0  0  0  0  0  0  0  0  0
    9.5670    7.3950    1.5150 C   0  0  0  0  0  0  0  0  0  0  0  0
    9.4290    8.6720    1.1370 C   0  0  0  0  0  0  0  0  0  0  0  0
    9.5270    9.1050   -0.1770 O   0  0  0  0  0  0  0  0  0  0  0  0
    9.1580    9.7690    2.1690 C   0  0  0  0  0  0  0  0  0  0  0  0
    9.8800   10.8030    2.0570 O   0  0  0  0  0  0  0  0  0  0  0  0
    8.3150    9.4650    3.0630 O   0  0  0  0  0  1  0  0  0  0  0  0
    9.4760    6.9390    2.8140 O   0  0  0  0  0  0  0  0  0  0  0  0
    9.6150    5.9750    2.7500 H   0  0  0  0  0  0  0  0  0  0  0  0
    9.9360    8.8150   -2.5380 C   0  0  0  0  0  2  0  0  0  0  0  0
    8.9510    8.3320   -3.4570 O   0  0  0  0  0  0  0  0  0  0  0  0
    7.7770    8.5790   -5.5650 C   0  0  0  0  0  1  0  0  0  0  0  0
    8.8530    9.1220   -4.6430 C   0  0  0  0  0  2  0  0  0  0  0  0
  1  2  2  0  0  0  0
  1  7  1  0  0  0  0
  2  3  1  0  0  0  0
  3  4  2  0  0  0  0
  3  5  1  0  0  0  0
  5 11  1  0  0  0  0
  6  5  2  0  0  0  0
  6  8  1  0  0  0  0
  7  6  1  0  0  0  0
  8 10  1  0  0  0  0
  9  8  2  0  0  0  0
 12 11  1  0  0  0  0
 13  1  1  0  0  0  0
 14 13  1  0  0  0  0
 15 16  1  0  0  0  0
 16 14  1  0  0  0  0
M  END
>  <minimizedAffinity>
-4.60688019

$$$$
