
 OpenBabel09122222393D

 39 41  0  0  1  0  0  0  0  0999 V2000
    2.6250   -5.3170    6.0780 C   0  0  2  0  0  3  0  0  0  0  0  0
    1.5730   -4.7810    5.4600 N   0  0  0  0  0  0  0  0  0  0  0  0
    1.6920   -3.2640    4.8280 S   0  0  0  0  0  0  0  0  0  0  0  0
    0.9920   -3.2110    3.5650 O   0  0  0  0  0  0  0  0  0  0  0  0
    1.4670   -2.2450    5.8300 O   0  0  0  0  0  0  0  0  0  0  0  0
    3.4280   -3.2420    4.4780 C   0  0  0  0  0  0  0  0  0  0  0  0
    4.1980   -3.1970    2.8400 C   0  0  0  0  0  3  0  0  0  0  0  0
    5.9560   -3.5520    2.6790 C   0  0  0  0  0  0  0  0  0  0  0  0
    6.9740   -3.9040    4.1620 C   0  0  0  0  0  3  0  0  0  0  0  0
    6.1550   -4.0950    5.7770 C   0  0  0  0  0  3  0  0  0  0  0  0
    4.3810   -3.7470    5.9190 C   0  0  0  0  0  0  0  0  0  0  0  0
    3.5450   -4.4970    6.8300 N   0  0  0  0  0  0  0  0  0  0  0  0
    1.0530   -5.3690    4.8230 H   0  0  0  0  0  0  0  0  0  0  0  0
    4.0940   -4.9450    7.5630 H   0  0  0  0  0  0  0  0  0  0  0  0
    1.9300   -8.2920    5.4650 N   0  0  0  0  0  0  0  0  0  0  0  0
    3.2740   -7.6590    5.8780 C   0  0  0  0  0  0  0  0  0  0  0  0
    4.0080   -7.9020    6.8300 O   0  0  0  0  0  0  0  0  0  0  0  0
    3.4080   -6.2840    5.2230 C   0  0  1  0  0  3  0  0  0  0  0  0
    3.3680   -6.3460    3.8850 C   0  0  1  0  0  3  0  0  0  0  0  0
    3.3070   -7.6780    3.2860 C   0  0  1  0  0  3  0  0  0  0  0  0
    3.9280   -7.9590    2.0660 C   0  0  0  0  0  3  0  0  0  0  0  0
    3.9150   -9.2600    1.5830 C   0  0  0  0  0  3  0  0  0  0  0  0
    3.2840  -10.2280    2.3410 C   0  0  0  0  0  3  0  0  0  0  0  0
    2.6520   -9.9790    3.5100 N   0  0  0  0  0  0  0  0  0  0  0  0
    2.6040   -8.7020    3.9740 C   0  0  0  0  0  0  0  0  0  0  0  0
    3.1890   -5.2790    3.0390 O   0  0  0  0  0  0  0  0  0  0  0  0
    3.5080   -4.4620    3.4620 H   0  0  0  0  0  0  0  0  0  0  0  0
    0.0160   -8.6140    6.2930 C   0  0  0  0  0  1  0  0  0  0  0  0
   -1.3170   -7.5310    6.7340 C   0  0  0  0  0  2  0  0  0  0  0  0
   -2.8100   -8.2630    4.7620 C   0  0  0  0  0  1  0  0  0  0  0  0
   -2.2850   -7.0940    5.5990 C   0  0  0  0  0  3  0  0  0  0  0  0
   -3.4760   -6.3540    6.2230 C   0  0  0  0  0  1  0  0  0  0  0  0
    6.5760   -3.5510    1.4640 O   0  0  0  0  0  0  0  0  0  0  0  0
    6.9240   -4.8560    1.0380 C   0  0  0  0  0  2  0  0  0  0  0  0
    6.3600   -5.3220   -0.3080 C   0  0  0  0  0  0  0  0  0  0  0  0
    5.0770   -5.8010   -0.2560 N   0  0  0  0  0  0  0  0  0  0  0  0
    6.9660   -5.3070   -1.3730 O   0  0  0  0  0  0  0  0  0  0  0  0
    4.6630   -6.1150   -1.1250 H   0  0  0  0  0  0  0  0  0  0  0  0
    4.5130   -5.8110    0.5820 H   0  0  0  0  0  0  0  0  0  0  0  0
  1  2  1  6  0  0  0
  1 12  1  0  0  0  0
  3  2  1  0  0  0  0
  3  5  2  0  0  0  0
  4  3  2  0  0  0  0
  6  3  1  0  0  0  0
  6 11  1  0  0  0  0
  7  6  2  0  0  0  0
  8  7  1  0  0  0  0
  8  9  2  0  0  0  0
  9 10  1  0  0  0  0
 10 11  2  0  0  0  0
 11 12  1  0  0  0  0
 12 14  1  0  0  0  0
 13  2  1  0  0  0  0
 15 16  1  0  0  0  0
 16 17  2  0  0  0  0
 18 16  1  1  0  0  0
 18  1  1  0  0  0  0
 19 26  1  1  0  0  0
 19 18  1  0  0  0  0
 20 21  1  1  0  0  0
 20 19  1  0  0  0  0
 20 25  1  0  0  0  0
 22 21  2  0  0  0  0
 22 23  1  0  0  0  0
 23 24  2  0  0  0  0
 24 25  1  0  0  0  0
 25 15  2  0  0  0  0
 26 27  1  0  0  0  0
 28 29  1  0  0  0  0
 30 31  1  0  0  0  0
 31 32  1  0  0  0  0
 31 29  1  0  0  0  0
 33  8  1  0  0  0  0
 34 33  1  0  0  0  0
 35 36  1  0  0  0  0
 35 34  1  0  0  0  0
 36 39  1  0  0  0  0
 37 35  2  0  0  0  0
 38 36  1  0  0  0  0
M  END
>  <minimizedAffinity>
3.34835482

$$$$
