
 OpenBabel09122222393D

 39 41  0  0  1  0  0  0  0  0999 V2000
    4.5170   -7.7520    3.5330 C   0  0  2  0  0  3  0  0  0  0  0  0
    4.0700   -7.8180    2.2790 N   0  0  0  0  0  0  0  0  0  0  0  0
    3.1860   -9.1230    1.8020 S   0  0  0  0  0  0  0  0  0  0  0  0
    2.1190   -8.6920    0.9280 O   0  0  0  0  0  0  0  0  0  0  0  0
    4.0310  -10.2370    1.4280 O   0  0  0  0  0  0  0  0  0  0  0  0
    2.4590   -9.5540    3.3590 C   0  0  0  0  0  0  0  0  0  0  0  0
    0.7060   -9.4430    3.8000 C   0  0  0  0  0  3  0  0  0  0  0  0
    0.2190   -9.5700    5.5280 C   0  0  0  0  0  0  0  0  0  0  0  0
    1.4750   -9.8620    6.8300 C   0  0  0  0  0  3  0  0  0  0  0  0
    3.2410   -9.8160    6.3880 C   0  0  0  0  0  3  0  0  0  0  0  0
    3.7150   -9.6750    4.6430 C   0  0  0  0  0  0  0  0  0  0  0  0
    4.9000   -8.9450    4.2500 N   0  0  0  0  0  0  0  0  0  0  0  0
    3.6700   -6.9800    1.8790 H   0  0  0  0  0  0  0  0  0  0  0  0
    5.5550   -8.8470    5.0250 H   0  0  0  0  0  0  0  0  0  0  0  0
    5.0240   -4.7690    4.2760 N   0  0  0  0  0  0  0  0  0  0  0  0
    4.6500   -5.9600    5.1810 C   0  0  0  0  0  0  0  0  0  0  0  0
    5.2240   -6.4260    6.1600 O   0  0  0  0  0  0  0  0  0  0  0  0
    3.6810   -6.8780    4.4360 C   0  0  1  0  0  3  0  0  0  0  0  0
    2.5510   -6.2510    4.0800 C   0  0  1  0  0  3  0  0  0  0  0  0
    2.3890   -4.8710    4.5340 C   0  0  1  0  0  3  0  0  0  0  0  0
    1.1330   -4.3540    4.8650 C   0  0  0  0  0  3  0  0  0  0  0  0
    1.0440   -3.0670    5.3730 C   0  0  0  0  0  3  0  0  0  0  0  0
    2.2140   -2.3480    5.5340 C   0  0  0  0  0  3  0  0  0  0  0  0
    3.4370   -2.8130    5.1960 N   0  0  0  0  0  0  0  0  0  0  0  0
    3.5420   -4.0510    4.6430 C   0  0  0  0  0  0  0  0  0  0  0  0
    1.6260   -6.7180    3.1780 O   0  0  0  0  0  0  0  0  0  0  0  0
    1.6540   -7.6910    3.1470 H   0  0  0  0  0  0  0  0  0  0  0  0
    6.6420   -4.1470    3.0730 C   0  0  0  0  0  1  0  0  0  0  0  0
    6.9740   -4.2460    1.3340 C   0  0  0  0  0  2  0  0  0  0  0  0
    6.7330   -5.4650   -0.9260 C   0  0  0  0  0  1  0  0  0  0  0  0
    6.4050   -5.4740    0.5690 C   0  0  0  0  0  3  0  0  0  0  0  0
    6.9740   -6.7540    1.1970 C   0  0  0  0  0  1  0  0  0  0  0  0
   -1.0870   -9.4710    5.9100 O   0  0  0  0  0  0  0  0  0  0  0  0
   -1.4770   -8.1310    6.1470 C   0  0  0  0  0  2  0  0  0  0  0  0
   -2.5710   -7.5540    5.2420 C   0  0  0  0  0  0  0  0  0  0  0  0
   -3.2070   -6.4510    5.7470 N   0  0  0  0  0  0  0  0  0  0  0  0
   -2.9030   -8.0090    4.1550 O   0  0  0  0  0  0  0  0  0  0  0  0
   -3.9340   -6.0330    5.1800 H   0  0  0  0  0  0  0  0  0  0  0  0
   -2.9600   -6.0070    6.6210 H   0  0  0  0  0  0  0  0  0  0  0  0
  1  2  1  6  0  0  0
  1 12  1  0  0  0  0
  1 18  1  0  0  0  0
  3  2  1  0  0  0  0
  3  6  1  0  0  0  0
  4  3  2  0  0  0  0
  5  3  2  0  0  0  0
  6  7  2  0  0  0  0
  6 11  1  0  0  0  0
  7  8  1  0  0  0  0
  8 33  1  0  0  0  0
  8  9  2  0  0  0  0
 10  9  1  0  0  0  0
 11 10  2  0  0  0  0
 12 11  1  0  0  0  0
 12 14  1  0  0  0  0
 13  2  1  0  0  0  0
 15 25  2  0  0  0  0
 15 16  1  0  0  0  0
 16 17  2  0  0  0  0
 18 16  1  6  0  0  0
 19 26  1  6  0  0  0
 19 18  1  0  0  0  0
 19 20  1  0  0  0  0
 20 25  1  0  0  0  0
 20 21  1  1  0  0  0
 21 22  2  0  0  0  0
 22 23  1  0  0  0  0
 24 23  2  0  0  0  0
 25 24  1  0  0  0  0
 27 26  1  0  0  0  0
 29 28  1  0  0  0  0
 30 31  1  0  0  0  0
 31 32  1  0  0  0  0
 31 29  1  0  0  0  0
 33 34  1  0  0  0  0
 35 36  1  0  0  0  0
 35 34  1  0  0  0  0
 36 39  1  0  0  0  0
 37 35  2  0  0  0  0
 38 36  1  0  0  0  0
M  END
>  <minimizedAffinity>
1.35248494

$$$$
