
 OpenBabel09132204463D

 25 28  0  0  0  0  0  0  0  0999 V2000
    4.9410   -6.5050    0.9820 C   0  0  0  0  0  0  0  0  0  0  0  0
    4.3770   -7.4480    1.7650 C   0  0  0  0  0  3  0  0  0  0  0  0
    3.8370   -7.1610    3.0040 N   0  0  0  0  0  0  0  0  0  0  0  0
    3.8580   -5.8850    3.5070 C   0  0  0  0  0  0  0  0  0  0  0  0
    3.4110   -5.3500    4.6520 C   0  0  0  0  0  0  0  0  0  0  0  0
    3.7950   -3.9290    4.4540 C   0  0  0  0  0  0  0  0  0  0  0  0
    4.3700   -3.6370    3.3180 N   0  0  0  0  0  0  0  0  0  0  0  0
    4.4550   -4.8420    2.6750 C   0  0  0  0  0  0  0  0  0  0  0  0
    4.9750   -5.1230    1.4710 C   0  0  0  0  0  3  0  0  0  0  0  0
    3.4350   -7.9150    3.5390 H   0  0  0  0  0  0  0  0  0  0  0  0
    2.6660   -5.9530    5.7980 C   0  0  0  0  0  3  0  0  0  0  0  0
    1.2870   -6.4890    5.3750 C   0  0  0  0  0  2  0  0  0  0  0  0
    0.5380   -7.0970    6.5610 C   0  0  0  0  0  2  0  0  0  0  0  0
    1.3620   -8.1790    7.2510 C   0  0  0  0  0  2  0  0  0  0  0  0
    2.7330   -7.6590    7.6720 C   0  0  0  0  0  2  0  0  0  0  0  0
    3.4910   -7.0490    6.4950 C   0  0  0  0  0  2  0  0  0  0  0  0
    3.5230   -2.9000    5.4670 C   0  0  0  0  0  0  0  0  0  0  0  0
    4.5100   -2.5010    6.3720 C   0  0  0  0  0  3  0  0  0  0  0  0
    4.2260   -1.5120    7.3140 C   0  0  0  0  0  3  0  0  0  0  0  0
    2.9650   -0.9140    7.3400 C   0  0  0  0  0  3  0  0  0  0  0  0
    1.9880   -1.2950    6.4170 C   0  0  0  0  0  3  0  0  0  0  0  0
    2.2680   -2.2830    5.4730 C   0  0  0  0  0  3  0  0  0  0  0  0
    6.2650   -5.9500   -0.9200 O   0  0  0  0  0  0  0  0  0  0  0  0
    5.5400   -6.8510   -0.3980 C   0  0  0  0  0  0  0  0  0  0  0  0
    5.2460   -7.9900   -0.8630 O   0  0  0  0  0  1  0  0  0  0  0  0
  1  9  1  0  0  0  0
  1  2  2  0  0  0  0
  2  3  1  0  0  0  0
  3  4  1  0  0  0  0
  3 10  1  0  0  0  0
  4  5  2  0  0  0  0
  5 11  1  0  0  0  0
  6  5  1  0  0  0  0
  6 17  1  0  0  0  0
  7  6  2  0  0  0  0
  8  7  1  0  0  0  0
  8  4  1  0  0  0  0
  9  8  2  0  0  0  0
 11 16  1  0  0  0  0
 12 11  1  0  0  0  0
 12 13  1  0  0  0  0
 13 14  1  0  0  0  0
 14 15  1  0  0  0  0
 16 15  1  0  0  0  0
 17 22  2  0  0  0  0
 17 18  1  0  0  0  0
 18 19  2  0  0  0  0
 19 20  1  0  0  0  0
 21 20  2  0  0  0  0
 22 21  1  0  0  0  0
 23 24  2  0  0  0  0
 24  1  1  0  0  0  0
 25 24  1  0  0  0  0
M  END
>  <minimizedAffinity>
-7.25390577

$$$$
