
 OpenBabel09132204463D

 25 28  0  0  0  0  0  0  0  0999 V2000
    6.2050   -6.0880    0.3940 C   0  0  0  0  0  0  0  0  0  0  0  0
    6.3290   -5.5060    1.6040 C   0  0  0  0  0  3  0  0  0  0  0  0
    7.3300   -4.5970    1.8940 N   0  0  0  0  0  0  0  0  0  0  0  0
    8.2620   -4.2460    0.9500 C   0  0  0  0  0  0  0  0  0  0  0  0
    9.3070   -3.4070    0.9700 C   0  0  0  0  0  0  0  0  0  0  0  0
    9.8110   -3.5700   -0.4180 C   0  0  0  0  0  0  0  0  0  0  0  0
    9.1340   -4.3780   -1.1880 N   0  0  0  0  0  0  0  0  0  0  0  0
    8.1440   -4.8550   -0.3740 C   0  0  0  0  0  0  0  0  0  0  0  0
    7.1690   -5.7350   -0.6520 C   0  0  0  0  0  3  0  0  0  0  0  0
    7.3670   -4.2030    2.8200 H   0  0  0  0  0  0  0  0  0  0  0  0
    9.8160   -2.4920    2.0340 C   0  0  0  0  0  3  0  0  0  0  0  0
    9.0430   -1.1620    2.0740 C   0  0  0  0  0  2  0  0  0  0  0  0
    9.5820   -0.2360    3.1640 C   0  0  0  0  0  2  0  0  0  0  0  0
    9.5780   -0.9150    4.5300 C   0  0  0  0  0  2  0  0  0  0  0  0
   10.3390   -2.2370    4.5020 C   0  0  0  0  0  2  0  0  0  0  0  0
    9.8110   -3.1710    3.4150 C   0  0  0  0  0  2  0  0  0  0  0  0
   10.9900   -2.8440   -0.9080 C   0  0  0  0  0  0  0  0  0  0  0  0
   12.2500   -3.4470   -0.9280 C   0  0  0  0  0  3  0  0  0  0  0  0
   13.3490   -2.7370   -1.4130 C   0  0  0  0  0  3  0  0  0  0  0  0
   13.1840   -1.4350   -1.8890 C   0  0  0  0  0  3  0  0  0  0  0  0
   11.9200   -0.8430   -1.8920 C   0  0  0  0  0  3  0  0  0  0  0  0
   10.8180   -1.5500   -1.4100 C   0  0  0  0  0  3  0  0  0  0  0  0
    5.0730   -7.5810   -1.0790 O   0  0  0  0  0  0  0  0  0  0  0  0
    5.0800   -7.1030    0.0960 C   0  0  0  0  0  0  0  0  0  0  0  0
    4.2860   -7.3510    1.0490 O   0  0  0  0  0  1  0  0  0  0  0  0
  1  2  2  0  0  0  0
  2  3  1  0  0  0  0
  3 10  1  0  0  0  0
  4  5  2  0  0  0  0
  4  3  1  0  0  0  0
  5 11  1  0  0  0  0
  6  5  1  0  0  0  0
  7  6  2  0  0  0  0
  7  8  1  0  0  0  0
  8  4  1  0  0  0  0
  9  8  2  0  0  0  0
  9  1  1  0  0  0  0
 11 12  1  0  0  0  0
 11 16  1  0  0  0  0
 12 13  1  0  0  0  0
 13 14  1  0  0  0  0
 15 14  1  0  0  0  0
 16 15  1  0  0  0  0
 17  6  1  0  0  0  0
 18 17  1  0  0  0  0
 19 18  2  0  0  0  0
 20 19  1  0  0  0  0
 21 20  2  0  0  0  0
 21 22  1  0  0  0  0
 22 17  2  0  0  0  0
 23 24  2  0  0  0  0
 24  1  1  0  0  0  0
 24 25  1  0  0  0  0
M  END
>  <minimizedAffinity>
-8.67306614

$$$$
