
 OpenBabel09132200043D

 25 28  0  0  0  0  0  0  0  0999 V2000
    6.2050   -6.0880    0.3940 C   0  0  0  0  0  0  0  0  0  0  0  0
    6.3290   -5.5060    1.6040 C   0  0  0  0  0  3  0  0  0  0  0  0
    7.3300   -4.5970    1.8940 N   0  0  0  0  0  0  0  0  0  0  0  0
    8.2620   -4.2460    0.9500 C   0  0  0  0  0  0  0  0  0  0  0  0
    9.3070   -3.4070    0.9700 C   0  0  0  0  0  0  0  0  0  0  0  0
    9.8110   -3.5700   -0.4180 C   0  0  0  0  0  0  0  0  0  0  0  0
    9.1340   -4.3780   -1.1880 N   0  0  0  0  0  0  0  0  0  0  0  0
    8.1440   -4.8550   -0.3740 C   0  0  0  0  0  0  0  0  0  0  0  0
    7.1690   -5.7350   -0.6520 C   0  0  0  0  0  3  0  0  0  0  0  0
    7.3670   -4.2030    2.8200 H   0  0  0  0  0  0  0  0  0  0  0  0
    9.8160   -2.4920    2.0340 C   0  0  0  0  0  3  0  0  0  0  0  0
    9.0430   -1.1620    2.0740 C   0  0  0  0  0  2  0  0  0  0  0  0
    9.5820   -0.2360    3.1640 C   0  0  0  0  0  2  0  0  0  0  0  0
    9.5780   -0.9150    4.5300 C   0  0  0  0  0  2  0  0  0  0  0  0
   10.3390   -2.2370    4.5020 C   0  0  0  0  0  2  0  0  0  0  0  0
    9.8110   -3.1710    3.4150 C   0  0  0  0  0  2  0  0  0  0  0  0
   10.9900   -2.8440   -0.9080 C   0  0  0  0  0  0  0  0  0  0  0  0
   12.2500   -3.4470   -0.9280 C   0  0  0  0  0  3  0  0  0  0  0  0
   13.3490   -2.7370   -1.4130 C   0  0  0  0  0  3  0  0  0  0  0  0
   13.1840   -1.4350   -1.8890 C   0  0  0  0  0  3  0  0  0  0  0  0
   11.9200   -0.8430   -1.8920 C   0  0  0  0  0  3  0  0  0  0  0  0
   10.8180   -1.5500   -1.4100 C   0  0  0  0  0  3  0  0  0  0  0  0
    5.0730   -7.5810   -1.0790 O   0  0  0  0  0  0  0  0  0  0  0  0
    5.0800   -7.1030    0.0960 C   0  0  0  0  0  0  0  0  0  0  0  0
    4.2860   -7.3510    1.0490 O   0  0  0  0  0  1  0  0  0  0  0  0
  1  2  2  0  0  0  0
  2  3  1  0  0  0  0
  3 10  1  0  0  0  0
  4  5  2  0  0  0  0
  4  3  1  0  0  0  0
  5 11  1  0  0  0  0
  6  5  1  0  0  0  0
  7  6  2  0  0  0  0
  7  8  1  0  0  0  0
  8  4  1  0  0  0  0
  9  8  2  0  0  0  0
  9  1  1  0  0  0  0
 11 12  1  0  0  0  0
 11 16  1  0  0  0  0
 12 13  1  0  0  0  0
 13 14  1  0  0  0  0
 15 14  1  0  0  0  0
 16 15  1  0  0  0  0
 17  6  1  0  0  0  0
 18 17  1  0  0  0  0
 19 18  2  0  0  0  0
 20 19  1  0  0  0  0
 21 20  2  0  0  0  0
 21 22  1  0  0  0  0
 22 17  2  0  0  0  0
 23 24  2  0  0  0  0
 24  1  1  0  0  0  0
 24 25  1  0  0  0  0
M  END
>  <minimizedAffinity>
-8.67306614

$$$$

 OpenBabel09132200043D

 25 28  0  0  0  0  0  0  0  0999 V2000
    6.3130   -5.9820   -0.2050 C   0  0  0  0  0  0  0  0  0  0  0  0
    7.2350   -5.6040   -1.1140 C   0  0  0  0  0  3  0  0  0  0  0  0
    8.2630   -4.7300   -0.8120 N   0  0  0  0  0  0  0  0  0  0  0  0
    8.3880   -4.1920    0.4440 C   0  0  0  0  0  0  0  0  0  0  0  0
    9.2730   -3.3440    0.9870 C   0  0  0  0  0  0  0  0  0  0  0  0
    8.7450   -3.2540    2.3720 C   0  0  0  0  0  0  0  0  0  0  0  0
    7.6960   -3.9830    2.6410 N   0  0  0  0  0  0  0  0  0  0  0  0
    7.4070   -4.5930    1.4500 C   0  0  0  0  0  0  0  0  0  0  0  0
    6.4120   -5.4440    1.1540 C   0  0  0  0  0  3  0  0  0  0  0  0
    8.9150   -4.4870   -1.5400 H   0  0  0  0  0  0  0  0  0  0  0  0
   10.4990   -2.7040    0.4230 C   0  0  0  0  0  3  0  0  0  0  0  0
   11.5560   -3.7410    0.0070 C   0  0  0  0  0  2  0  0  0  0  0  0
   12.8050   -3.0680   -0.5610 C   0  0  0  0  0  2  0  0  0  0  0  0
   12.4630   -2.1350   -1.7180 C   0  0  0  0  0  2  0  0  0  0  0  0
   11.4130   -1.1040   -1.3180 C   0  0  0  0  0  2  0  0  0  0  0  0
   10.1600   -1.7650   -0.7480 C   0  0  0  0  0  2  0  0  0  0  0  0
    9.3810   -2.4120    3.3950 C   0  0  0  0  0  0  0  0  0  0  0  0
    9.4060   -1.0210    3.2680 C   0  0  0  0  0  3  0  0  0  0  0  0
   10.0050   -0.2470    4.2630 C   0  0  0  0  0  3  0  0  0  0  0  0
   10.5630   -0.8620    5.3850 C   0  0  0  0  0  3  0  0  0  0  0  0
   10.5140   -2.2510    5.5220 C   0  0  0  0  0  3  0  0  0  0  0  0
    9.9150   -3.0280    4.5310 C   0  0  0  0  0  3  0  0  0  0  0  0
    4.0110   -6.6020   -0.2010 O   0  0  0  0  0  1  0  0  0  0  0  0
    5.1720   -6.9580   -0.5670 C   0  0  0  0  0  0  0  0  0  0  0  0
    5.5130   -8.0070   -1.1890 O   0  0  0  0  0  0  0  0  0  0  0  0
  1  9  1  0  0  0  0
  2  3  1  0  0  0  0
  2  1  2  0  0  0  0
  3  4  1  0  0  0  0
  4  5  2  0  0  0  0
  4  8  1  0  0  0  0
  5  6  1  0  0  0  0
  6  7  2  0  0  0  0
  6 17  1  0  0  0  0
  8  7  1  0  0  0  0
  9  8  2  0  0  0  0
 10  3  1  0  0  0  0
 11  5  1  0  0  0  0
 12 11  1  0  0  0  0
 13 12  1  0  0  0  0
 14 15  1  0  0  0  0
 14 13  1  0  0  0  0
 15 16  1  0  0  0  0
 16 11  1  0  0  0  0
 17 22  1  0  0  0  0
 18 17  2  0  0  0  0
 18 19  1  0  0  0  0
 19 20  2  0  0  0  0
 20 21  1  0  0  0  0
 22 21  2  0  0  0  0
 24  1  1  0  0  0  0
 24 23  1  0  0  0  0
 25 24  2  0  0  0  0
M  END
>  <minimizedAffinity>
-7.94397736

$$$$

 OpenBabel09132200043D

 25 28  0  0  0  0  0  0  0  0999 V2000
    2.8040   -3.1910    4.7690 C   0  0  0  0  0  0  0  0  0  0  0  0
    3.6630   -2.8430    3.7890 C   0  0  0  0  0  3  0  0  0  0  0  0
    4.3350   -3.7750    3.0210 N   0  0  0  0  0  0  0  0  0  0  0  0
    4.1620   -5.1200    3.2300 C   0  0  0  0  0  0  0  0  0  0  0  0
    4.6780   -6.2070    2.6390 C   0  0  0  0  0  0  0  0  0  0  0  0
    4.0050   -7.2810    3.4150 C   0  0  0  0  0  0  0  0  0  0  0  0
    3.1640   -6.8910    4.3340 N   0  0  0  0  0  0  0  0  0  0  0  0
    3.2290   -5.5260    4.2800 C   0  0  0  0  0  0  0  0  0  0  0  0
    2.5760   -4.6170    5.0210 C   0  0  0  0  0  3  0  0  0  0  0  0
    4.9660   -3.4460    2.3080 H   0  0  0  0  0  0  0  0  0  0  0  0
    5.6080   -6.3510    1.4800 C   0  0  0  0  0  3  0  0  0  0  0  0
    4.8870   -6.1730    0.1320 C   0  0  0  0  0  2  0  0  0  0  0  0
    5.8520   -6.3300   -1.0430 C   0  0  0  0  0  2  0  0  0  0  0  0
    7.0400   -5.3800   -0.9240 C   0  0  0  0  0  2  0  0  0  0  0  0
    7.7610   -5.5460    0.4100 C   0  0  0  0  0  2  0  0  0  0  0  0
    6.8060   -5.3920    1.5920 C   0  0  0  0  0  2  0  0  0  0  0  0
    4.2520   -8.7050    3.1480 C   0  0  0  0  0  0  0  0  0  0  0  0
    5.2310   -9.4100    3.8520 C   0  0  0  0  0  3  0  0  0  0  0  0
    5.4320  -10.7650    3.5870 C   0  0  0  0  0  3  0  0  0  0  0  0
    4.6460  -11.4140    2.6320 C   0  0  0  0  0  3  0  0  0  0  0  0
    3.6510  -10.7130    1.9490 C   0  0  0  0  0  3  0  0  0  0  0  0
    3.4450   -9.3590    2.2120 C   0  0  0  0  0  3  0  0  0  0  0  0
    2.3770   -2.1000    6.8440 O   0  0  0  0  0  1  0  0  0  0  0  0
    2.0670   -2.1300    5.6140 C   0  0  0  0  0  0  0  0  0  0  0  0
    1.2340   -1.4050    4.9960 O   0  0  0  0  0  0  0  0  0  0  0  0
  1  9  1  0  0  0  0
  1 24  1  0  0  0  0
  2  1  2  0  0  0  0
  3  4  1  0  0  0  0
  3  2  1  0  0  0  0
  4  8  1  0  0  0  0
  5  4  2  0  0  0  0
  5  6  1  0  0  0  0
  6  7  2  0  0  0  0
  8  7  1  0  0  0  0
  8  9  2  0  0  0  0
 10  3  1  0  0  0  0
 11 16  1  0  0  0  0
 11  5  1  0  0  0  0
 12 11  1  0  0  0  0
 13 14  1  0  0  0  0
 13 12  1  0  0  0  0
 14 15  1  0  0  0  0
 15 16  1  0  0  0  0
 17  6  1  0  0  0  0
 17 18  1  0  0  0  0
 19 18  2  0  0  0  0
 20 19  1  0  0  0  0
 21 22  1  0  0  0  0
 21 20  2  0  0  0  0
 22 17  2  0  0  0  0
 24 23  1  0  0  0  0
 25 24  2  0  0  0  0
M  END
>  <minimizedAffinity>
-7.83801603

$$$$

 OpenBabel09132200043D

 25 28  0  0  0  0  0  0  0  0999 V2000
    5.1450   -6.5510    0.8300 C   0  0  0  0  0  0  0  0  0  0  0  0
    4.7770   -7.5380    1.6720 C   0  0  0  0  0  3  0  0  0  0  0  0
    4.3040   -7.2920    2.9470 N   0  0  0  0  0  0  0  0  0  0  0  0
    4.1930   -6.0100    3.4250 C   0  0  0  0  0  0  0  0  0  0  0  0
    3.7710   -5.5080    4.5930 C   0  0  0  0  0  0  0  0  0  0  0  0
    3.9430   -4.0550    4.3410 C   0  0  0  0  0  0  0  0  0  0  0  0
    4.3800   -3.7200    3.1570 N   0  0  0  0  0  0  0  0  0  0  0  0
    4.5750   -4.9200    2.5290 C   0  0  0  0  0  0  0  0  0  0  0  0
    5.0320   -5.1640    1.2900 C   0  0  0  0  0  3  0  0  0  0  0  0
    4.0510   -8.0770    3.5250 H   0  0  0  0  0  0  0  0  0  0  0  0
    3.2080   -6.1730    5.8070 C   0  0  0  0  0  3  0  0  0  0  0  0
    3.8020   -5.6050    7.1070 C   0  0  0  0  0  2  0  0  0  0  0  0
    3.2200   -6.3020    8.3370 C   0  0  0  0  0  2  0  0  0  0  0  0
    1.6960   -6.2330    8.3530 C   0  0  0  0  0  2  0  0  0  0  0  0
    1.0950   -6.7900    7.0660 C   0  0  0  0  0  2  0  0  0  0  0  0
    1.6710   -6.1020    5.8290 C   0  0  0  0  0  2  0  0  0  0  0  0
    3.6160   -3.0440    5.3550 C   0  0  0  0  0  0  0  0  0  0  0  0
    4.5920   -2.5590    6.2300 C   0  0  0  0  0  3  0  0  0  0  0  0
    4.2540   -1.5890    7.1740 C   0  0  0  0  0  3  0  0  0  0  0  0
    2.9500   -1.0950    7.2320 C   0  0  0  0  0  3  0  0  0  0  0  0
    1.9830   -1.5610    6.3390 C   0  0  0  0  0  3  0  0  0  0  0  0
    2.3160   -2.5300    5.3930 C   0  0  0  0  0  3  0  0  0  0  0  0
    6.3580   -5.9280   -1.1250 O   0  0  0  0  0  0  0  0  0  0  0  0
    5.6730   -6.8520   -0.5900 C   0  0  0  0  0  0  0  0  0  0  0  0
    5.3700   -7.9830   -1.0690 O   0  0  0  0  0  1  0  0  0  0  0  0
  1  9  1  0  0  0  0
  1  2  2  0  0  0  0
  2  3  1  0  0  0  0
  3  4  1  0  0  0  0
  3 10  1  0  0  0  0
  4  5  2  0  0  0  0
  5 11  1  0  0  0  0
  6  5  1  0  0  0  0
  6 17  1  0  0  0  0
  7  6  2  0  0  0  0
  8  7  1  0  0  0  0
  8  4  1  0  0  0  0
  9  8  2  0  0  0  0
 11 16  1  0  0  0  0
 11 12  1  0  0  0  0
 12 13  1  0  0  0  0
 13 14  1  0  0  0  0
 15 14  1  0  0  0  0
 16 15  1  0  0  0  0
 17 22  2  0  0  0  0
 17 18  1  0  0  0  0
 18 19  2  0  0  0  0
 19 20  1  0  0  0  0
 21 20  2  0  0  0  0
 22 21  1  0  0  0  0
 23 24  2  0  0  0  0
 24  1  1  0  0  0  0
 25 24  1  0  0  0  0
M  END
>  <minimizedAffinity>
-7.31872892

$$$$

 OpenBabel09132200043D

 25 28  0  0  0  0  0  0  0  0999 V2000
    4.9410   -6.5050    0.9820 C   0  0  0  0  0  0  0  0  0  0  0  0
    4.3770   -7.4480    1.7650 C   0  0  0  0  0  3  0  0  0  0  0  0
    3.8370   -7.1610    3.0040 N   0  0  0  0  0  0  0  0  0  0  0  0
    3.8580   -5.8850    3.5070 C   0  0  0  0  0  0  0  0  0  0  0  0
    3.4110   -5.3500    4.6520 C   0  0  0  0  0  0  0  0  0  0  0  0
    3.7950   -3.9290    4.4540 C   0  0  0  0  0  0  0  0  0  0  0  0
    4.3700   -3.6370    3.3180 N   0  0  0  0  0  0  0  0  0  0  0  0
    4.4550   -4.8420    2.6750 C   0  0  0  0  0  0  0  0  0  0  0  0
    4.9750   -5.1230    1.4710 C   0  0  0  0  0  3  0  0  0  0  0  0
    3.4350   -7.9150    3.5390 H   0  0  0  0  0  0  0  0  0  0  0  0
    2.6660   -5.9530    5.7980 C   0  0  0  0  0  3  0  0  0  0  0  0
    1.2870   -6.4890    5.3750 C   0  0  0  0  0  2  0  0  0  0  0  0
    0.5380   -7.0970    6.5610 C   0  0  0  0  0  2  0  0  0  0  0  0
    1.3620   -8.1790    7.2510 C   0  0  0  0  0  2  0  0  0  0  0  0
    2.7330   -7.6590    7.6720 C   0  0  0  0  0  2  0  0  0  0  0  0
    3.4910   -7.0490    6.4950 C   0  0  0  0  0  2  0  0  0  0  0  0
    3.5230   -2.9000    5.4670 C   0  0  0  0  0  0  0  0  0  0  0  0
    4.5100   -2.5010    6.3720 C   0  0  0  0  0  3  0  0  0  0  0  0
    4.2260   -1.5120    7.3140 C   0  0  0  0  0  3  0  0  0  0  0  0
    2.9650   -0.9140    7.3400 C   0  0  0  0  0  3  0  0  0  0  0  0
    1.9880   -1.2950    6.4170 C   0  0  0  0  0  3  0  0  0  0  0  0
    2.2680   -2.2830    5.4730 C   0  0  0  0  0  3  0  0  0  0  0  0
    6.2650   -5.9500   -0.9200 O   0  0  0  0  0  0  0  0  0  0  0  0
    5.5400   -6.8510   -0.3980 C   0  0  0  0  0  0  0  0  0  0  0  0
    5.2460   -7.9900   -0.8630 O   0  0  0  0  0  1  0  0  0  0  0  0
  1  9  1  0  0  0  0
  1  2  2  0  0  0  0
  2  3  1  0  0  0  0
  3  4  1  0  0  0  0
  3 10  1  0  0  0  0
  4  5  2  0  0  0  0
  5 11  1  0  0  0  0
  6  5  1  0  0  0  0
  6 17  1  0  0  0  0
  7  6  2  0  0  0  0
  8  7  1  0  0  0  0
  8  4  1  0  0  0  0
  9  8  2  0  0  0  0
 11 16  1  0  0  0  0
 12 11  1  0  0  0  0
 12 13  1  0  0  0  0
 13 14  1  0  0  0  0
 14 15  1  0  0  0  0
 16 15  1  0  0  0  0
 17 22  2  0  0  0  0
 17 18  1  0  0  0  0
 18 19  2  0  0  0  0
 19 20  1  0  0  0  0
 21 20  2  0  0  0  0
 22 21  1  0  0  0  0
 23 24  2  0  0  0  0
 24  1  1  0  0  0  0
 25 24  1  0  0  0  0
M  END
>  <minimizedAffinity>
-7.25390577

$$$$

 OpenBabel09132200043D

 25 28  0  0  0  0  0  0  0  0999 V2000
    5.5290   -6.4510    2.2160 C   0  0  0  0  0  0  0  0  0  0  0  0
    5.4800   -5.1470    2.5550 C   0  0  0  0  0  3  0  0  0  0  0  0
    4.5800   -4.6520    3.4800 N   0  0  0  0  0  0  0  0  0  0  0  0
    3.6750   -5.4770    4.0990 C   0  0  0  0  0  0  0  0  0  0  0  0
    2.7190   -5.2590    5.0120 C   0  0  0  0  0  0  0  0  0  0  0  0
    2.1830   -6.6340    5.1770 C   0  0  0  0  0  0  0  0  0  0  0  0
    2.7650   -7.5700    4.4770 N   0  0  0  0  0  0  0  0  0  0  0  0
    3.7130   -6.8980    3.7550 C   0  0  0  0  0  0  0  0  0  0  0  0
    4.5910   -7.3750    2.8590 C   0  0  0  0  0  3  0  0  0  0  0  0
    4.5950   -3.6660    3.6840 H   0  0  0  0  0  0  0  0  0  0  0  0
    2.3190   -4.0190    5.7430 C   0  0  0  0  0  3  0  0  0  0  0  0
    3.2860   -3.6850    6.8920 C   0  0  0  0  0  2  0  0  0  0  0  0
    2.8580   -2.4180    7.6320 C   0  0  0  0  0  2  0  0  0  0  0  0
    2.7050   -1.2360    6.6800 C   0  0  0  0  0  2  0  0  0  0  0  0
    1.7500   -1.5570    5.5340 C   0  0  0  0  0  2  0  0  0  0  0  0
    2.1680   -2.8230    4.7870 C   0  0  0  0  0  2  0  0  0  0  0  0
    1.0750   -6.9330    6.0950 C   0  0  0  0  0  0  0  0  0  0  0  0
    1.2720   -6.9540    7.4780 C   0  0  0  0  0  3  0  0  0  0  0  0
    0.1980   -7.2280    8.3250 C   0  0  0  0  0  3  0  0  0  0  0  0
   -1.0700   -7.4640    7.7910 C   0  0  0  0  0  3  0  0  0  0  0  0
   -1.2700   -7.4160    6.4100 C   0  0  0  0  0  3  0  0  0  0  0  0
   -0.1990   -7.1420    5.5590 C   0  0  0  0  0  3  0  0  0  0  0  0
    6.0810   -7.1720    0.0120 O   0  0  0  0  0  0  0  0  0  0  0  0
    6.5430   -6.9800    1.1780 C   0  0  0  0  0  0  0  0  0  0  0  0
    7.7230   -7.1650    1.5960 O   0  0  0  0  0  1  0  0  0  0  0  0
  1  2  2  0  0  0  0
  1  9  1  0  0  0  0
  2  3  1  0  0  0  0
  3 10  1  0  0  0  0
  3  4  1  0  0  0  0
  4  5  2  0  0  0  0
  5  6  1  0  0  0  0
  5 11  1  0  0  0  0
  6 17  1  0  0  0  0
  7  6  2  0  0  0  0
  8  4  1  0  0  0  0
  8  7  1  0  0  0  0
  9  8  2  0  0  0  0
 11 12  1  0  0  0  0
 12 13  1  0  0  0  0
 14 13  1  0  0  0  0
 15 14  1  0  0  0  0
 16 15  1  0  0  0  0
 16 11  1  0  0  0  0
 17 18  1  0  0  0  0
 18 19  2  0  0  0  0
 20 19  1  0  0  0  0
 21 20  2  0  0  0  0
 22 17  2  0  0  0  0
 22 21  1  0  0  0  0
 23 24  2  0  0  0  0
 24 25  1  0  0  0  0
 24  1  1  0  0  0  0
M  END
>  <minimizedAffinity>
-7.03755617

$$$$

 OpenBabel09132200043D

 25 28  0  0  0  0  0  0  0  0999 V2000
    8.9350   -3.8810    0.8540 C   0  0  0  0  0  0  0  0  0  0  0  0
    8.3880   -3.1070    1.8130 C   0  0  0  0  0  3  0  0  0  0  0  0
    7.2520   -3.4750    2.5110 N   0  0  0  0  0  0  0  0  0  0  0  0
    6.6140   -4.6620    2.2480 C   0  0  0  0  0  0  0  0  0  0  0  0
    5.5250   -5.2450    2.7680 C   0  0  0  0  0  0  0  0  0  0  0  0
    5.4840   -6.4980    1.9720 C   0  0  0  0  0  0  0  0  0  0  0  0
    6.4470   -6.6660    1.1060 N   0  0  0  0  0  0  0  0  0  0  0  0
    7.1930   -5.5250    1.2190 C   0  0  0  0  0  0  0  0  0  0  0  0
    8.2970   -5.1650    0.5470 C   0  0  0  0  0  3  0  0  0  0  0  0
    6.8940   -2.8470    3.2110 H   0  0  0  0  0  0  0  0  0  0  0  0
    4.6210   -4.8290    3.8810 C   0  0  0  0  0  3  0  0  0  0  0  0
    5.3980   -4.2230    5.0630 C   0  0  0  0  0  2  0  0  0  0  0  0
    4.4570   -3.8090    6.1950 C   0  0  0  0  0  2  0  0  0  0  0  0
    3.3710   -2.8580    5.7040 C   0  0  0  0  0  2  0  0  0  0  0  0
    2.5970   -3.4470    4.5290 C   0  0  0  0  0  2  0  0  0  0  0  0
    3.5260   -3.8650    3.3920 C   0  0  0  0  0  2  0  0  0  0  0  0
    4.4340   -7.5080    2.1640 C   0  0  0  0  0  0  0  0  0  0  0  0
    3.9510   -7.8120    3.4390 C   0  0  0  0  0  3  0  0  0  0  0  0
    2.9440   -8.7650    3.5880 C   0  0  0  0  0  3  0  0  0  0  0  0
    2.4120   -9.4000    2.4640 C   0  0  0  0  0  3  0  0  0  0  0  0
    2.8770   -9.0750    1.1880 C   0  0  0  0  0  3  0  0  0  0  0  0
    3.8830   -8.1220    1.0350 C   0  0  0  0  0  3  0  0  0  0  0  0
   11.0180   -2.7310    0.7450 O   0  0  0  0  0  1  0  0  0  0  0  0
   10.2030   -3.4460    0.0880 C   0  0  0  0  0  0  0  0  0  0  0  0
   10.2960   -3.8470   -1.1090 O   0  0  0  0  0  0  0  0  0  0  0  0
  1  2  2  0  0  0  0
  2  3  1  0  0  0  0
  3 10  1  0  0  0  0
  4  3  1  0  0  0  0
  4  5  2  0  0  0  0
  5 11  1  0  0  0  0
  6 17  1  0  0  0  0
  6  5  1  0  0  0  0
  7  8  1  0  0  0  0
  7  6  2  0  0  0  0
  8  4  1  0  0  0  0
  9  1  1  0  0  0  0
  9  8  2  0  0  0  0
 11 12  1  0  0  0  0
 12 13  1  0  0  0  0
 14 13  1  0  0  0  0
 15 14  1  0  0  0  0
 16 11  1  0  0  0  0
 16 15  1  0  0  0  0
 17 18  1  0  0  0  0
 18 19  2  0  0  0  0
 20 19  1  0  0  0  0
 21 20  2  0  0  0  0
 22 21  1  0  0  0  0
 22 17  2  0  0  0  0
 24 23  1  0  0  0  0
 24  1  1  0  0  0  0
 25 24  2  0  0  0  0
M  END
>  <minimizedAffinity>
-6.91370964

$$$$

 OpenBabel09132200043D

 25 28  0  0  0  0  0  0  0  0999 V2000
    6.9560   -5.9620    1.4700 C   0  0  0  0  0  0  0  0  0  0  0  0
    7.9260   -6.0270    0.5350 C   0  0  0  0  0  3  0  0  0  0  0  0
    8.8260   -5.0000    0.3220 N   0  0  0  0  0  0  0  0  0  0  0  0
    8.7680   -3.8440    1.0590 C   0  0  0  0  0  0  0  0  0  0  0  0
    9.5030   -2.7230    1.0560 C   0  0  0  0  0  0  0  0  0  0  0  0
    8.8280   -1.9540    2.1330 C   0  0  0  0  0  0  0  0  0  0  0  0
    7.8330   -2.5500    2.7340 N   0  0  0  0  0  0  0  0  0  0  0  0
    7.7310   -3.7510    2.0870 C   0  0  0  0  0  0  0  0  0  0  0  0
    6.8610   -4.7520    2.2920 C   0  0  0  0  0  3  0  0  0  0  0  0
    9.5230   -5.1130   -0.3960 H   0  0  0  0  0  0  0  0  0  0  0  0
   10.7120   -2.3400    0.2670 C   0  0  0  0  0  3  0  0  0  0  0  0
   11.6990   -3.5100    0.1140 C   0  0  0  0  0  2  0  0  0  0  0  0
   12.9320   -3.0970   -0.6900 C   0  0  0  0  0  2  0  0  0  0  0  0
   12.5490   -2.5180   -2.0480 C   0  0  0  0  0  2  0  0  0  0  0  0
   11.5670   -1.3590   -1.9090 C   0  0  0  0  0  2  0  0  0  0  0  0
   10.3310   -1.7600   -1.1060 C   0  0  0  0  0  2  0  0  0  0  0  0
    9.2690   -0.6080    2.5210 C   0  0  0  0  0  0  0  0  0  0  0  0
    9.8500   -0.3720    3.7700 C   0  0  0  0  0  3  0  0  0  0  0  0
   10.2710    0.9150    4.1050 C   0  0  0  0  0  3  0  0  0  0  0  0
   10.1260    1.9580    3.1880 C   0  0  0  0  0  3  0  0  0  0  0  0
    9.5700    1.7150    1.9300 C   0  0  0  0  0  3  0  0  0  0  0  0
    9.1480    0.4290    1.5910 C   0  0  0  0  0  3  0  0  0  0  0  0
    5.3580   -7.5250    0.6470 O   0  0  0  0  0  0  0  0  0  0  0  0
    5.9610   -7.1220    1.6870 C   0  0  0  0  0  0  0  0  0  0  0  0
    5.8530   -7.5490    2.8730 O   0  0  0  0  0  1  0  0  0  0  0  0
  1 24  1  0  0  0  0
  1  9  1  0  0  0  0
  2  1  2  0  0  0  0
  3  2  1  0  0  0  0
  3  4  1  0  0  0  0
  4  8  1  0  0  0  0
  5  4  2  0  0  0  0
  5  6  1  0  0  0  0
  6 17  1  0  0  0  0
  6  7  2  0  0  0  0
  8  9  2  0  0  0  0
  8  7  1  0  0  0  0
 10  3  1  0  0  0  0
 11  5  1  0  0  0  0
 12 11  1  0  0  0  0
 13 12  1  0  0  0  0
 14 15  1  0  0  0  0
 14 13  1  0  0  0  0
 15 16  1  0  0  0  0
 16 11  1  0  0  0  0
 17 18  1  0  0  0  0
 18 19  2  0  0  0  0
 20 19  1  0  0  0  0
 21 20  2  0  0  0  0
 22 21  1  0  0  0  0
 22 17  2  0  0  0  0
 23 24  2  0  0  0  0
 24 25  1  0  0  0  0
M  END
>  <minimizedAffinity>
-6.73125648

$$$$

 OpenBabel09132200043D

 25 28  0  0  0  0  0  0  0  0999 V2000
    5.3250   -6.8340    1.9940 C   0  0  0  0  0  0  0  0  0  0  0  0
    4.4910   -7.6420    2.6800 C   0  0  0  0  0  3  0  0  0  0  0  0
    3.6970   -7.1870    3.7160 N   0  0  0  0  0  0  0  0  0  0  0  0
    3.7290   -5.8720    4.1070 C   0  0  0  0  0  0  0  0  0  0  0  0
    3.0760   -5.1880    5.0560 C   0  0  0  0  0  0  0  0  0  0  0  0
    3.6450   -3.8310    4.8520 C   0  0  0  0  0  0  0  0  0  0  0  0
    4.5070   -3.7050    3.8790 N   0  0  0  0  0  0  0  0  0  0  0  0
    4.6180   -4.9720    3.3740 C   0  0  0  0  0  0  0  0  0  0  0  0
    5.3840   -5.4170    2.3660 C   0  0  0  0  0  3  0  0  0  0  0  0
    3.1000   -7.8460    4.1890 H   0  0  0  0  0  0  0  0  0  0  0  0
    2.0150   -5.6080    6.0200 C   0  0  0  0  0  3  0  0  0  0  0  0
    1.2060   -6.8100    5.5040 C   0  0  0  0  0  2  0  0  0  0  0  0
    0.1210   -7.2210    6.5000 C   0  0  0  0  0  2  0  0  0  0  0  0
    0.7040   -7.5010    7.8810 C   0  0  0  0  0  2  0  0  0  0  0  0
    1.5120   -6.3160    8.4020 C   0  0  0  0  0  2  0  0  0  0  0  0
    2.5990   -5.8960    7.4140 C   0  0  0  0  0  2  0  0  0  0  0  0
    3.2440   -2.6860    5.6790 C   0  0  0  0  0  0  0  0  0  0  0  0
    2.0180   -2.0460    5.4780 C   0  0  0  0  0  3  0  0  0  0  0  0
    1.6590   -0.9690    6.2900 C   0  0  0  0  0  3  0  0  0  0  0  0
    2.5150   -0.5450    7.3070 C   0  0  0  0  0  3  0  0  0  0  0  0
    3.7280   -1.2030    7.5240 C   0  0  0  0  0  3  0  0  0  0  0  0
    4.0900   -2.2810    6.7160 C   0  0  0  0  0  3  0  0  0  0  0  0
    7.4190   -7.5770    1.1330 O   0  0  0  0  0  1  0  0  0  0  0  0
    6.2020   -7.3670    0.8410 C   0  0  0  0  0  0  0  0  0  0  0  0
    5.6200   -7.5380   -0.2690 O   0  0  0  0  0  0  0  0  0  0  0  0
  1  9  1  0  0  0  0
  1  2  2  0  0  0  0
  2  3  1  0  0  0  0
  3  4  1  0  0  0  0
  3 10  1  0  0  0  0
  4  5  2  0  0  0  0
  5 11  1  0  0  0  0
  6  5  1  0  0  0  0
  6 17  1  0  0  0  0
  7  6  2  0  0  0  0
  8  7  1  0  0  0  0
  8  4  1  0  0  0  0
  9  8  2  0  0  0  0
 11 16  1  0  0  0  0
 12 11  1  0  0  0  0
 12 13  1  0  0  0  0
 13 14  1  0  0  0  0
 14 15  1  0  0  0  0
 16 15  1  0  0  0  0
 17 22  1  0  0  0  0
 18 17  2  0  0  0  0
 18 19  1  0  0  0  0
 19 20  2  0  0  0  0
 20 21  1  0  0  0  0
 22 21  2  0  0  0  0
 24 23  1  0  0  0  0
 24  1  1  0  0  0  0
 25 24  2  0  0  0  0
M  END
>  <minimizedAffinity>
-6.72682762

$$$$

 OpenBabel09132200043D

 25 28  0  0  0  0  0  0  0  0999 V2000
    3.2940   -4.8160    6.4530 C   0  0  0  0  0  0  0  0  0  0  0  0
    3.0130   -6.1250    6.2890 C   0  0  0  0  0  3  0  0  0  0  0  0
    3.4560   -6.8510    5.1990 N   0  0  0  0  0  0  0  0  0  0  0  0
    4.2070   -6.2620    4.2140 C   0  0  0  0  0  0  0  0  0  0  0  0
    4.7520   -6.7280    3.0820 C   0  0  0  0  0  0  0  0  0  0  0  0
    5.4080   -5.4980    2.5710 C   0  0  0  0  0  0  0  0  0  0  0  0
    5.3020   -4.4320    3.3180 N   0  0  0  0  0  0  0  0  0  0  0  0
    4.5350   -4.8450    4.3730 C   0  0  0  0  0  0  0  0  0  0  0  0
    4.1050   -4.1450    5.4340 C   0  0  0  0  0  3  0  0  0  0  0  0
    3.2050   -7.8250    5.1370 H   0  0  0  0  0  0  0  0  0  0  0  0
    4.7830   -8.1010    2.4960 C   0  0  0  0  0  3  0  0  0  0  0  0
    5.1180   -9.1730    3.5470 C   0  0  0  0  0  2  0  0  0  0  0  0
    5.1510  -10.5710    2.9280 C   0  0  0  0  0  2  0  0  0  0  0  0
    3.8480  -10.8960    2.2060 C   0  0  0  0  0  2  0  0  0  0  0  0
    3.5030   -9.8370    1.1630 C   0  0  0  0  0  2  0  0  0  0  0  0
    3.4680   -8.4360    1.7700 C   0  0  0  0  0  2  0  0  0  0  0  0
    6.1580   -5.4820    1.3080 C   0  0  0  0  0  0  0  0  0  0  0  0
    5.5420   -5.8240    0.1010 C   0  0  0  0  0  3  0  0  0  0  0  0
    6.2770   -5.7860   -1.0850 C   0  0  0  0  0  3  0  0  0  0  0  0
    7.6170   -5.3940   -1.0640 C   0  0  0  0  0  3  0  0  0  0  0  0
    8.2230   -5.0280    0.1390 C   0  0  0  0  0  3  0  0  0  0  0  0
    7.4920   -5.0630    1.3270 C   0  0  0  0  0  3  0  0  0  0  0  0
    2.5090   -4.7240    8.7010 O   0  0  0  0  0  1  0  0  0  0  0  0
    2.7860   -4.0270    7.6790 C   0  0  0  0  0  0  0  0  0  0  0  0
    2.6990   -2.7720    7.5370 O   0  0  0  0  0  0  0  0  0  0  0  0
  1 24  1  0  0  0  0
  2  1  2  0  0  0  0
  3  2  1  0  0  0  0
  4  8  1  0  0  0  0
  4  3  1  0  0  0  0
  5  4  2  0  0  0  0
  6  5  1  0  0  0  0
  6  7  2  0  0  0  0
  7  8  1  0  0  0  0
  8  9  2  0  0  0  0
  9  1  1  0  0  0  0
 10  3  1  0  0  0  0
 11  5  1  0  0  0  0
 11 12  1  0  0  0  0
 13 12  1  0  0  0  0
 14 13  1  0  0  0  0
 15 16  1  0  0  0  0
 15 14  1  0  0  0  0
 16 11  1  0  0  0  0
 17 22  1  0  0  0  0
 17  6  1  0  0  0  0
 18 17  2  0  0  0  0
 19 20  2  0  0  0  0
 19 18  1  0  0  0  0
 20 21  1  0  0  0  0
 21 22  2  0  0  0  0
 24 23  1  0  0  0  0
 25 24  2  0  0  0  0
M  END
>  <minimizedAffinity>
-6.64911842

$$$$
