
 OpenBabel09132204463D

 25 28  0  0  0  0  0  0  0  0999 V2000
    5.5290   -6.4510    2.2160 C   0  0  0  0  0  0  0  0  0  0  0  0
    5.4800   -5.1470    2.5550 C   0  0  0  0  0  3  0  0  0  0  0  0
    4.5800   -4.6520    3.4800 N   0  0  0  0  0  0  0  0  0  0  0  0
    3.6750   -5.4770    4.0990 C   0  0  0  0  0  0  0  0  0  0  0  0
    2.7190   -5.2590    5.0120 C   0  0  0  0  0  0  0  0  0  0  0  0
    2.1830   -6.6340    5.1770 C   0  0  0  0  0  0  0  0  0  0  0  0
    2.7650   -7.5700    4.4770 N   0  0  0  0  0  0  0  0  0  0  0  0
    3.7130   -6.8980    3.7550 C   0  0  0  0  0  0  0  0  0  0  0  0
    4.5910   -7.3750    2.8590 C   0  0  0  0  0  3  0  0  0  0  0  0
    4.5950   -3.6660    3.6840 H   0  0  0  0  0  0  0  0  0  0  0  0
    2.3190   -4.0190    5.7430 C   0  0  0  0  0  3  0  0  0  0  0  0
    3.2860   -3.6850    6.8920 C   0  0  0  0  0  2  0  0  0  0  0  0
    2.8580   -2.4180    7.6320 C   0  0  0  0  0  2  0  0  0  0  0  0
    2.7050   -1.2360    6.6800 C   0  0  0  0  0  2  0  0  0  0  0  0
    1.7500   -1.5570    5.5340 C   0  0  0  0  0  2  0  0  0  0  0  0
    2.1680   -2.8230    4.7870 C   0  0  0  0  0  2  0  0  0  0  0  0
    1.0750   -6.9330    6.0950 C   0  0  0  0  0  0  0  0  0  0  0  0
    1.2720   -6.9540    7.4780 C   0  0  0  0  0  3  0  0  0  0  0  0
    0.1980   -7.2280    8.3250 C   0  0  0  0  0  3  0  0  0  0  0  0
   -1.0700   -7.4640    7.7910 C   0  0  0  0  0  3  0  0  0  0  0  0
   -1.2700   -7.4160    6.4100 C   0  0  0  0  0  3  0  0  0  0  0  0
   -0.1990   -7.1420    5.5590 C   0  0  0  0  0  3  0  0  0  0  0  0
    6.0810   -7.1720    0.0120 O   0  0  0  0  0  0  0  0  0  0  0  0
    6.5430   -6.9800    1.1780 C   0  0  0  0  0  0  0  0  0  0  0  0
    7.7230   -7.1650    1.5960 O   0  0  0  0  0  1  0  0  0  0  0  0
  1  2  2  0  0  0  0
  1  9  1  0  0  0  0
  2  3  1  0  0  0  0
  3 10  1  0  0  0  0
  3  4  1  0  0  0  0
  4  5  2  0  0  0  0
  5  6  1  0  0  0  0
  5 11  1  0  0  0  0
  6 17  1  0  0  0  0
  7  6  2  0  0  0  0
  8  4  1  0  0  0  0
  8  7  1  0  0  0  0
  9  8  2  0  0  0  0
 11 12  1  0  0  0  0
 12 13  1  0  0  0  0
 14 13  1  0  0  0  0
 15 14  1  0  0  0  0
 16 15  1  0  0  0  0
 16 11  1  0  0  0  0
 17 18  1  0  0  0  0
 18 19  2  0  0  0  0
 20 19  1  0  0  0  0
 21 20  2  0  0  0  0
 22 17  2  0  0  0  0
 22 21  1  0  0  0  0
 23 24  2  0  0  0  0
 24 25  1  0  0  0  0
 24  1  1  0  0  0  0
M  END
>  <minimizedAffinity>
-7.03755617

$$$$
