
 OpenBabel09132204463D

 25 28  0  0  0  0  0  0  0  0999 V2000
    6.9560   -5.9620    1.4700 C   0  0  0  0  0  0  0  0  0  0  0  0
    7.9260   -6.0270    0.5350 C   0  0  0  0  0  3  0  0  0  0  0  0
    8.8260   -5.0000    0.3220 N   0  0  0  0  0  0  0  0  0  0  0  0
    8.7680   -3.8440    1.0590 C   0  0  0  0  0  0  0  0  0  0  0  0
    9.5030   -2.7230    1.0560 C   0  0  0  0  0  0  0  0  0  0  0  0
    8.8280   -1.9540    2.1330 C   0  0  0  0  0  0  0  0  0  0  0  0
    7.8330   -2.5500    2.7340 N   0  0  0  0  0  0  0  0  0  0  0  0
    7.7310   -3.7510    2.0870 C   0  0  0  0  0  0  0  0  0  0  0  0
    6.8610   -4.7520    2.2920 C   0  0  0  0  0  3  0  0  0  0  0  0
    9.5230   -5.1130   -0.3960 H   0  0  0  0  0  0  0  0  0  0  0  0
   10.7120   -2.3400    0.2670 C   0  0  0  0  0  3  0  0  0  0  0  0
   11.6990   -3.5100    0.1140 C   0  0  0  0  0  2  0  0  0  0  0  0
   12.9320   -3.0970   -0.6900 C   0  0  0  0  0  2  0  0  0  0  0  0
   12.5490   -2.5180   -2.0480 C   0  0  0  0  0  2  0  0  0  0  0  0
   11.5670   -1.3590   -1.9090 C   0  0  0  0  0  2  0  0  0  0  0  0
   10.3310   -1.7600   -1.1060 C   0  0  0  0  0  2  0  0  0  0  0  0
    9.2690   -0.6080    2.5210 C   0  0  0  0  0  0  0  0  0  0  0  0
    9.8500   -0.3720    3.7700 C   0  0  0  0  0  3  0  0  0  0  0  0
   10.2710    0.9150    4.1050 C   0  0  0  0  0  3  0  0  0  0  0  0
   10.1260    1.9580    3.1880 C   0  0  0  0  0  3  0  0  0  0  0  0
    9.5700    1.7150    1.9300 C   0  0  0  0  0  3  0  0  0  0  0  0
    9.1480    0.4290    1.5910 C   0  0  0  0  0  3  0  0  0  0  0  0
    5.3580   -7.5250    0.6470 O   0  0  0  0  0  0  0  0  0  0  0  0
    5.9610   -7.1220    1.6870 C   0  0  0  0  0  0  0  0  0  0  0  0
    5.8530   -7.5490    2.8730 O   0  0  0  0  0  1  0  0  0  0  0  0
  1 24  1  0  0  0  0
  1  9  1  0  0  0  0
  2  1  2  0  0  0  0
  3  2  1  0  0  0  0
  3  4  1  0  0  0  0
  4  8  1  0  0  0  0
  5  4  2  0  0  0  0
  5  6  1  0  0  0  0
  6 17  1  0  0  0  0
  6  7  2  0  0  0  0
  8  9  2  0  0  0  0
  8  7  1  0  0  0  0
 10  3  1  0  0  0  0
 11  5  1  0  0  0  0
 12 11  1  0  0  0  0
 13 12  1  0  0  0  0
 14 15  1  0  0  0  0
 14 13  1  0  0  0  0
 15 16  1  0  0  0  0
 16 11  1  0  0  0  0
 17 18  1  0  0  0  0
 18 19  2  0  0  0  0
 20 19  1  0  0  0  0
 21 20  2  0  0  0  0
 22 21  1  0  0  0  0
 22 17  2  0  0  0  0
 23 24  2  0  0  0  0
 24 25  1  0  0  0  0
M  END
>  <minimizedAffinity>
-6.73125648

$$$$
