
 OpenBabel09132204463D

 25 28  0  0  0  0  0  0  0  0999 V2000
    6.3130   -5.9820   -0.2050 C   0  0  0  0  0  0  0  0  0  0  0  0
    7.2350   -5.6040   -1.1140 C   0  0  0  0  0  3  0  0  0  0  0  0
    8.2630   -4.7300   -0.8120 N   0  0  0  0  0  0  0  0  0  0  0  0
    8.3880   -4.1920    0.4440 C   0  0  0  0  0  0  0  0  0  0  0  0
    9.2730   -3.3440    0.9870 C   0  0  0  0  0  0  0  0  0  0  0  0
    8.7450   -3.2540    2.3720 C   0  0  0  0  0  0  0  0  0  0  0  0
    7.6960   -3.9830    2.6410 N   0  0  0  0  0  0  0  0  0  0  0  0
    7.4070   -4.5930    1.4500 C   0  0  0  0  0  0  0  0  0  0  0  0
    6.4120   -5.4440    1.1540 C   0  0  0  0  0  3  0  0  0  0  0  0
    8.9150   -4.4870   -1.5400 H   0  0  0  0  0  0  0  0  0  0  0  0
   10.4990   -2.7040    0.4230 C   0  0  0  0  0  3  0  0  0  0  0  0
   11.5560   -3.7410    0.0070 C   0  0  0  0  0  2  0  0  0  0  0  0
   12.8050   -3.0680   -0.5610 C   0  0  0  0  0  2  0  0  0  0  0  0
   12.4630   -2.1350   -1.7180 C   0  0  0  0  0  2  0  0  0  0  0  0
   11.4130   -1.1040   -1.3180 C   0  0  0  0  0  2  0  0  0  0  0  0
   10.1600   -1.7650   -0.7480 C   0  0  0  0  0  2  0  0  0  0  0  0
    9.3810   -2.4120    3.3950 C   0  0  0  0  0  0  0  0  0  0  0  0
    9.4060   -1.0210    3.2680 C   0  0  0  0  0  3  0  0  0  0  0  0
   10.0050   -0.2470    4.2630 C   0  0  0  0  0  3  0  0  0  0  0  0
   10.5630   -0.8620    5.3850 C   0  0  0  0  0  3  0  0  0  0  0  0
   10.5140   -2.2510    5.5220 C   0  0  0  0  0  3  0  0  0  0  0  0
    9.9150   -3.0280    4.5310 C   0  0  0  0  0  3  0  0  0  0  0  0
    4.0110   -6.6020   -0.2010 O   0  0  0  0  0  1  0  0  0  0  0  0
    5.1720   -6.9580   -0.5670 C   0  0  0  0  0  0  0  0  0  0  0  0
    5.5130   -8.0070   -1.1890 O   0  0  0  0  0  0  0  0  0  0  0  0
  1  9  1  0  0  0  0
  2  3  1  0  0  0  0
  2  1  2  0  0  0  0
  3  4  1  0  0  0  0
  4  5  2  0  0  0  0
  4  8  1  0  0  0  0
  5  6  1  0  0  0  0
  6  7  2  0  0  0  0
  6 17  1  0  0  0  0
  8  7  1  0  0  0  0
  9  8  2  0  0  0  0
 10  3  1  0  0  0  0
 11  5  1  0  0  0  0
 12 11  1  0  0  0  0
 13 12  1  0  0  0  0
 14 15  1  0  0  0  0
 14 13  1  0  0  0  0
 15 16  1  0  0  0  0
 16 11  1  0  0  0  0
 17 22  1  0  0  0  0
 18 17  2  0  0  0  0
 18 19  1  0  0  0  0
 19 20  2  0  0  0  0
 20 21  1  0  0  0  0
 22 21  2  0  0  0  0
 24  1  1  0  0  0  0
 24 23  1  0  0  0  0
 25 24  2  0  0  0  0
M  END
>  <minimizedAffinity>
-7.94397736

$$$$
