
 OpenBabel09132204463D

 29 31  0  0  0  0  0  0  0  0999 V2000
    6.0850   -5.4910    1.2900 C   0  0  0  0  0  0  0  0  0  0  0  0
    5.9620   -4.9420    2.5110 C   0  0  0  0  0  0  0  0  0  0  0  0
    6.9210   -4.1460    3.0990 N   0  0  0  0  0  0  0  0  0  0  0  0
    7.9520   -3.8330    2.3910 C   0  0  0  0  0  0  0  0  0  0  0  0
    8.1520   -4.2720    1.1210 N   0  0  0  0  0  0  0  0  0  0  0  0
    7.2990   -5.1540    0.5220 C   0  0  0  0  0  0  0  0  0  0  0  0
    7.5400   -5.6180   -0.5860 O   0  0  0  0  0  0  0  0  0  0  0  0
    8.9570   -3.9920    0.5870 H   0  0  0  0  0  0  0  0  0  0  0  0
    4.7250   -5.1250    3.2950 C   0  0  0  0  0  0  0  0  0  0  0  0
    4.4070   -6.3730    3.8480 C   0  0  0  0  0  3  0  0  0  0  0  0
    3.2330   -6.5240    4.5940 C   0  0  0  0  0  3  0  0  0  0  0  0
    2.3910   -5.4320    4.7920 C   0  0  0  0  0  0  0  0  0  0  0  0
    1.2720   -5.5860    5.5100 F   0  0  0  0  0  0  0  0  0  0  0  0
    2.6940   -4.1870    4.2600 C   0  0  0  0  0  3  0  0  0  0  0  0
    3.8590   -4.0420    3.5170 C   0  0  0  0  0  0  0  0  0  0  0  0
    4.1500   -2.8370    3.0040 F   0  0  0  0  0  0  0  0  0  0  0  0
    4.1430   -7.0900    0.1030 N   0  0  0  0  0  1  0  0  0  0  0  0
    5.0240   -6.3650    0.6410 C   0  0  0  0  0  2  0  0  0  0  0  0
    9.1320   -2.7510    3.0560 S   0  0  0  0  0  0  0  0  0  0  0  0
    8.9980   -1.2390    2.0840 C   0  0  0  0  0  2  0  0  0  0  0  0
    9.7500   -1.1840    0.7760 C   0  0  0  0  0  0  0  0  0  0  0  0
    9.7550    0.0180    0.0430 C   0  0  0  0  0  3  0  0  0  0  0  0
   10.4700    0.1350   -1.1510 C   0  0  0  0  0  3  0  0  0  0  0  0
   11.2010   -0.9460   -1.6360 C   0  0  0  0  0  3  0  0  0  0  0  0
   11.2170   -2.1430   -0.9100 C   0  0  0  0  0  0  0  0  0  0  0  0
   10.5100   -2.2630    0.2970 C   0  0  0  0  0  3  0  0  0  0  0  0
   11.9800   -3.2860   -1.4210 N   0  0  0  0  0  0  0  0  0  0  0  0
   11.8750   -4.3640   -0.8180 O   0  0  0  0  0  0  0  0  0  0  0  0
   12.6890   -3.1010   -2.4200 O   0  0  0  0  0  0  0  0  0  0  0  0
  1  2  2  0  0  0  0
  2  3  1  0  0  0  0
  2  9  1  0  0  0  0
  4 19  1  0  0  0  0
  4  3  2  0  0  0  0
  5  4  1  0  0  0  0
  6  5  1  0  0  0  0
  6  1  1  0  0  0  0
  7  6  2  0  0  0  0
  8  5  1  0  0  0  0
  9 15  2  0  0  0  0
  9 10  1  0  0  0  0
 10 11  2  0  0  0  0
 11 12  1  0  0  0  0
 12 13  1  0  0  0  0
 14 12  2  0  0  0  0
 15 14  1  0  0  0  0
 16 15  1  0  0  0  0
 17 18  1  0  0  0  0
 18  1  1  0  0  0  0
 20 19  1  0  0  0  0
 21 20  1  0  0  0  0
 22 21  2  0  0  0  0
 23 22  1  0  0  0  0
 24 23  2  0  0  0  0
 24 25  1  0  0  0  0
 25 26  2  0  0  0  0
 26 21  1  0  0  0  0
 27 25  1  0  0  0  0
 27 28  2  0  0  0  0
 29 27  2  0  0  0  0
M  END
>  <minimizedAffinity>
-7.56222296

$$$$
