
 OpenBabel09132204463D

 29 31  0  0  0  0  0  0  0  0999 V2000
    4.0770   -6.0740    3.8360 C   0  0  0  0  0  0  0  0  0  0  0  0
    4.8330   -4.9680    3.9600 C   0  0  0  0  0  0  0  0  0  0  0  0
    5.9120   -4.6770    3.1540 N   0  0  0  0  0  0  0  0  0  0  0  0
    6.1430   -5.4650    2.1590 C   0  0  0  0  0  0  0  0  0  0  0  0
    5.4050   -6.5730    1.8930 N   0  0  0  0  0  0  0  0  0  0  0  0
    4.3970   -6.9820    2.7180 C   0  0  0  0  0  0  0  0  0  0  0  0
    3.8030   -8.0350    2.5210 O   0  0  0  0  0  0  0  0  0  0  0  0
    5.5990   -7.1570    1.0960 H   0  0  0  0  0  0  0  0  0  0  0  0
    4.5050   -3.9460    4.9720 C   0  0  0  0  0  0  0  0  0  0  0  0
    5.3010   -3.7870    6.1140 C   0  0  0  0  0  3  0  0  0  0  0  0
    4.9770   -2.8070    7.0580 C   0  0  0  0  0  3  0  0  0  0  0  0
    3.8710   -1.9850    6.8520 C   0  0  0  0  0  0  0  0  0  0  0  0
    3.5710   -1.0480    7.7590 F   0  0  0  0  0  0  0  0  0  0  0  0
    3.0770   -2.1200    5.7230 C   0  0  0  0  0  3  0  0  0  0  0  0
    3.4010   -3.0980    4.7900 C   0  0  0  0  0  0  0  0  0  0  0  0
    2.6310   -3.2260    3.6990 F   0  0  0  0  0  0  0  0  0  0  0  0
    1.8970   -6.6550    5.4620 N   0  0  0  0  0  1  0  0  0  0  0  0
    2.8860   -6.3920    4.7240 C   0  0  0  0  0  2  0  0  0  0  0  0
    7.4270   -5.0770    1.0600 S   0  0  0  0  0  0  0  0  0  0  0  0
    8.4860   -3.9210    1.9480 C   0  0  0  0  0  2  0  0  0  0  0  0
    9.1410   -2.8210    1.1470 C   0  0  0  0  0  0  0  0  0  0  0  0
    9.8080   -3.1530   -0.0470 C   0  0  0  0  0  3  0  0  0  0  0  0
   10.3930   -2.1690   -0.8470 C   0  0  0  0  0  3  0  0  0  0  0  0
   10.3200   -0.8290   -0.4720 C   0  0  0  0  0  3  0  0  0  0  0  0
    9.6470   -0.4840    0.7050 C   0  0  0  0  0  0  0  0  0  0  0  0
    9.0460   -1.4670    1.5080 C   0  0  0  0  0  3  0  0  0  0  0  0
    9.5750    0.9240    1.1070 N   0  0  0  0  0  0  0  0  0  0  0  0
   10.2480    1.7420    0.4640 O   0  0  0  0  0  0  0  0  0  0  0  0
    8.8510    1.2080    2.0730 O   0  0  0  0  0  0  0  0  0  0  0  0
  1  2  2  0  0  0  0
  1 18  1  0  0  0  0
  2  9  1  0  0  0  0
  3  2  1  0  0  0  0
  4  3  2  0  0  0  0
  5  4  1  0  0  0  0
  5  6  1  0  0  0  0
  6  1  1  0  0  0  0
  7  6  2  0  0  0  0
  8  5  1  0  0  0  0
  9 10  1  0  0  0  0
 10 11  2  0  0  0  0
 12 11  1  0  0  0  0
 12 13  1  0  0  0  0
 14 12  2  0  0  0  0
 15  9  2  0  0  0  0
 15 14  1  0  0  0  0
 16 15  1  0  0  0  0
 18 17  1  0  0  0  0
 19 20  1  0  0  0  0
 19  4  1  0  0  0  0
 21 26  1  0  0  0  0
 21 20  1  0  0  0  0
 22 21  2  0  0  0  0
 23 24  2  0  0  0  0
 23 22  1  0  0  0  0
 24 25  1  0  0  0  0
 25 27  1  0  0  0  0
 25 26  2  0  0  0  0
 27 29  2  0  0  0  0
 28 27  2  0  0  0  0
M  END
>  <minimizedAffinity>
-7.46832705

$$$$
