
 OpenBabel09132204463D

 29 31  0  0  0  0  0  0  0  0999 V2000
    9.0390   -3.7160    0.7410 C   0  0  0  0  0  0  0  0  0  0  0  0
    8.4890   -3.5490    1.9580 C   0  0  0  0  0  0  0  0  0  0  0  0
    7.3590   -4.2070    2.3900 N   0  0  0  0  0  0  0  0  0  0  0  0
    6.8600   -5.1090    1.6140 C   0  0  0  0  0  0  0  0  0  0  0  0
    7.3700   -5.4130    0.3920 N   0  0  0  0  0  0  0  0  0  0  0  0
    8.4170   -4.7200   -0.1440 C   0  0  0  0  0  0  0  0  0  0  0  0
    8.8060   -4.9370   -1.2850 O   0  0  0  0  0  0  0  0  0  0  0  0
    6.9700   -6.1370   -0.1810 H   0  0  0  0  0  0  0  0  0  0  0  0
    9.1210   -2.6590    2.9500 C   0  0  0  0  0  0  0  0  0  0  0  0
    9.7970   -3.1860    4.0580 C   0  0  0  0  0  3  0  0  0  0  0  0
   10.3960   -2.3250    4.9830 C   0  0  0  0  0  3  0  0  0  0  0  0
   10.3260   -0.9470    4.7930 C   0  0  0  0  0  0  0  0  0  0  0  0
   10.9050   -0.1310    5.6830 F   0  0  0  0  0  0  0  0  0  0  0  0
    9.6700   -0.4060    3.6980 C   0  0  0  0  0  3  0  0  0  0  0  0
    9.0740   -1.2650    2.7830 C   0  0  0  0  0  0  0  0  0  0  0  0
    8.4400   -0.7400    1.7240 F   0  0  0  0  0  0  0  0  0  0  0  0
   11.3260   -2.3910   -0.1240 N   0  0  0  0  0  1  0  0  0  0  0  0
   10.2890   -2.9920    0.2680 C   0  0  0  0  0  2  0  0  0  0  0  0
    5.4990   -6.0330    2.1630 S   0  0  0  0  0  0  0  0  0  0  0  0
    4.1820   -4.8320    2.4300 C   0  0  0  0  0  2  0  0  0  0  0  0
    4.0150   -4.2810    3.8260 C   0  0  0  0  0  0  0  0  0  0  0  0
    4.8440   -4.7680    4.8540 C   0  0  0  0  0  3  0  0  0  0  0  0
    4.7600   -4.2630    6.1530 C   0  0  0  0  0  3  0  0  0  0  0  0
    3.8470   -3.2540    6.4520 C   0  0  0  0  0  3  0  0  0  0  0  0
    3.0260   -2.7510    5.4360 C   0  0  0  0  0  0  0  0  0  0  0  0
    3.1140   -3.2470    4.1260 C   0  0  0  0  0  3  0  0  0  0  0  0
    2.0590   -1.6950    5.7490 N   0  0  0  0  0  0  0  0  0  0  0  0
    1.1790   -1.4530    4.9100 O   0  0  0  0  0  0  0  0  0  0  0  0
    2.1860   -1.1030    6.8300 O   0  0  0  0  0  0  0  0  0  0  0  0
  1  2  2  0  0  0  0
  2  3  1  0  0  0  0
  2  9  1  0  0  0  0
  4 19  1  0  0  0  0
  4  3  2  0  0  0  0
  5  4  1  0  0  0  0
  6  5  1  0  0  0  0
  6  1  1  0  0  0  0
  7  6  2  0  0  0  0
  8  5  1  0  0  0  0
  9 10  1  0  0  0  0
 10 11  2  0  0  0  0
 12 11  1  0  0  0  0
 12 13  1  0  0  0  0
 14 12  2  0  0  0  0
 15  9  2  0  0  0  0
 15 14  1  0  0  0  0
 16 15  1  0  0  0  0
 17 18  1  0  0  0  0
 18  1  1  0  0  0  0
 19 20  1  0  0  0  0
 20 21  1  0  0  0  0
 21 26  2  0  0  0  0
 21 22  1  0  0  0  0
 22 23  2  0  0  0  0
 23 24  1  0  0  0  0
 25 27  1  0  0  0  0
 25 24  2  0  0  0  0
 26 25  1  0  0  0  0
 27 29  2  0  0  0  0
 28 27  2  0  0  0  0
M  END
>  <minimizedAffinity>
-7.76188469

$$$$
