
 OpenBabel09132204463D

 29 31  0  0  0  0  0  0  0  0999 V2000
    7.0680   -5.4890    0.3080 C   0  0  0  0  0  0  0  0  0  0  0  0
    6.9070   -5.1890    1.6090 C   0  0  0  0  0  0  0  0  0  0  0  0
    7.7210   -4.3240    2.3080 N   0  0  0  0  0  0  0  0  0  0  0  0
    8.6280   -3.6910    1.6430 C   0  0  0  0  0  0  0  0  0  0  0  0
    8.8380   -3.8600    0.3120 N   0  0  0  0  0  0  0  0  0  0  0  0
    8.1440   -4.7850   -0.4140 C   0  0  0  0  0  0  0  0  0  0  0  0
    8.4100   -4.9970   -1.5910 O   0  0  0  0  0  0  0  0  0  0  0  0
    9.5400   -3.3350   -0.1810 H   0  0  0  0  0  0  0  0  0  0  0  0
    5.7780   -5.7520    2.3750 C   0  0  0  0  0  0  0  0  0  0  0  0
    4.7470   -4.9270    2.8420 C   0  0  0  0  0  3  0  0  0  0  0  0
    3.6830   -5.4810    3.5590 C   0  0  0  0  0  3  0  0  0  0  0  0
    3.6460   -6.8530    3.7960 C   0  0  0  0  0  0  0  0  0  0  0  0
    2.6200   -7.3750    4.4810 F   0  0  0  0  0  0  0  0  0  0  0  0
    4.6510   -7.6880    3.3330 C   0  0  0  0  0  3  0  0  0  0  0  0
    5.7090   -7.1320    2.6250 C   0  0  0  0  0  0  0  0  0  0  0  0
    6.6810   -7.9420    2.1770 F   0  0  0  0  0  0  0  0  0  0  0  0
    5.4180   -7.2300   -1.0990 N   0  0  0  0  0  1  0  0  0  0  0  0
    6.1660   -6.4410   -0.4610 C   0  0  0  0  0  2  0  0  0  0  0  0
    9.6050   -2.5170    2.4630 S   0  0  0  0  0  0  0  0  0  0  0  0
    8.8430   -0.9240    2.1030 C   0  0  0  0  0  2  0  0  0  0  0  0
    9.5040   -0.0570    1.0580 C   0  0  0  0  0  0  0  0  0  0  0  0
    9.6810    1.3140    1.3230 C   0  0  0  0  0  3  0  0  0  0  0  0
   10.3250    2.1510    0.4090 C   0  0  0  0  0  3  0  0  0  0  0  0
   10.8100    1.6340   -0.7900 C   0  0  0  0  0  3  0  0  0  0  0  0
   10.6540    0.2690   -1.0600 C   0  0  0  0  0  0  0  0  0  0  0  0
   10.0180   -0.5790   -0.1400 C   0  0  0  0  0  3  0  0  0  0  0  0
   11.1560   -0.2770   -2.3240 N   0  0  0  0  0  0  0  0  0  0  0  0
   12.3850   -0.3430   -2.4750 O   0  0  0  0  0  0  0  0  0  0  0  0
   10.3210   -0.6300   -3.1680 O   0  0  0  0  0  0  0  0  0  0  0  0
  1  2  2  0  0  0  0
  2  3  1  0  0  0  0
  2  9  1  0  0  0  0
  4  3  2  0  0  0  0
  4 19  1  0  0  0  0
  5  4  1  0  0  0  0
  6  1  1  0  0  0  0
  6  5  1  0  0  0  0
  7  6  2  0  0  0  0
  8  5  1  0  0  0  0
  9 15  2  0  0  0  0
  9 10  1  0  0  0  0
 10 11  2  0  0  0  0
 11 12  1  0  0  0  0
 12 13  1  0  0  0  0
 14 12  2  0  0  0  0
 15 14  1  0  0  0  0
 16 15  1  0  0  0  0
 17 18  1  0  0  0  0
 18  1  1  0  0  0  0
 20 19  1  0  0  0  0
 21 22  1  0  0  0  0
 21 20  1  0  0  0  0
 23 22  2  0  0  0  0
 24 23  1  0  0  0  0
 25 24  2  0  0  0  0
 25 26  1  0  0  0  0
 26 21  2  0  0  0  0
 27 25  1  0  0  0  0
 28 27  2  0  0  0  0
 29 27  2  0  0  0  0
M  END
>  <minimizedAffinity>
-8.32789516

$$$$
