
 OpenBabel09132200353D

 29 31  0  0  0  0  0  0  0  0999 V2000
    7.0680   -5.4890    0.3080 C   0  0  0  0  0  0  0  0  0  0  0  0
    6.9070   -5.1890    1.6090 C   0  0  0  0  0  0  0  0  0  0  0  0
    7.7210   -4.3240    2.3080 N   0  0  0  0  0  0  0  0  0  0  0  0
    8.6280   -3.6910    1.6430 C   0  0  0  0  0  0  0  0  0  0  0  0
    8.8380   -3.8600    0.3120 N   0  0  0  0  0  0  0  0  0  0  0  0
    8.1440   -4.7850   -0.4140 C   0  0  0  0  0  0  0  0  0  0  0  0
    8.4100   -4.9970   -1.5910 O   0  0  0  0  0  0  0  0  0  0  0  0
    9.5400   -3.3350   -0.1810 H   0  0  0  0  0  0  0  0  0  0  0  0
    5.7780   -5.7520    2.3750 C   0  0  0  0  0  0  0  0  0  0  0  0
    4.7470   -4.9270    2.8420 C   0  0  0  0  0  3  0  0  0  0  0  0
    3.6830   -5.4810    3.5590 C   0  0  0  0  0  3  0  0  0  0  0  0
    3.6460   -6.8530    3.7960 C   0  0  0  0  0  0  0  0  0  0  0  0
    2.6200   -7.3750    4.4810 F   0  0  0  0  0  0  0  0  0  0  0  0
    4.6510   -7.6880    3.3330 C   0  0  0  0  0  3  0  0  0  0  0  0
    5.7090   -7.1320    2.6250 C   0  0  0  0  0  0  0  0  0  0  0  0
    6.6810   -7.9420    2.1770 F   0  0  0  0  0  0  0  0  0  0  0  0
    5.4180   -7.2300   -1.0990 N   0  0  0  0  0  1  0  0  0  0  0  0
    6.1660   -6.4410   -0.4610 C   0  0  0  0  0  2  0  0  0  0  0  0
    9.6050   -2.5170    2.4630 S   0  0  0  0  0  0  0  0  0  0  0  0
    8.8430   -0.9240    2.1030 C   0  0  0  0  0  2  0  0  0  0  0  0
    9.5040   -0.0570    1.0580 C   0  0  0  0  0  0  0  0  0  0  0  0
    9.6810    1.3140    1.3230 C   0  0  0  0  0  3  0  0  0  0  0  0
   10.3250    2.1510    0.4090 C   0  0  0  0  0  3  0  0  0  0  0  0
   10.8100    1.6340   -0.7900 C   0  0  0  0  0  3  0  0  0  0  0  0
   10.6540    0.2690   -1.0600 C   0  0  0  0  0  0  0  0  0  0  0  0
   10.0180   -0.5790   -0.1400 C   0  0  0  0  0  3  0  0  0  0  0  0
   11.1560   -0.2770   -2.3240 N   0  0  0  0  0  0  0  0  0  0  0  0
   12.3850   -0.3430   -2.4750 O   0  0  0  0  0  0  0  0  0  0  0  0
   10.3210   -0.6300   -3.1680 O   0  0  0  0  0  0  0  0  0  0  0  0
  1  2  2  0  0  0  0
  2  3  1  0  0  0  0
  2  9  1  0  0  0  0
  4  3  2  0  0  0  0
  4 19  1  0  0  0  0
  5  4  1  0  0  0  0
  6  1  1  0  0  0  0
  6  5  1  0  0  0  0
  7  6  2  0  0  0  0
  8  5  1  0  0  0  0
  9 15  2  0  0  0  0
  9 10  1  0  0  0  0
 10 11  2  0  0  0  0
 11 12  1  0  0  0  0
 12 13  1  0  0  0  0
 14 12  2  0  0  0  0
 15 14  1  0  0  0  0
 16 15  1  0  0  0  0
 17 18  1  0  0  0  0
 18  1  1  0  0  0  0
 20 19  1  0  0  0  0
 21 22  1  0  0  0  0
 21 20  1  0  0  0  0
 23 22  2  0  0  0  0
 24 23  1  0  0  0  0
 25 24  2  0  0  0  0
 25 26  1  0  0  0  0
 26 21  2  0  0  0  0
 27 25  1  0  0  0  0
 28 27  2  0  0  0  0
 29 27  2  0  0  0  0
M  END
>  <minimizedAffinity>
-8.32789516

$$$$

 OpenBabel09132200353D

 29 31  0  0  0  0  0  0  0  0999 V2000
    7.0740   -5.4840    0.3050 C   0  0  0  0  0  0  0  0  0  0  0  0
    6.9150   -5.1760    1.6050 C   0  0  0  0  0  0  0  0  0  0  0  0
    7.7310   -4.3080    2.2980 N   0  0  0  0  0  0  0  0  0  0  0  0
    8.6380   -3.6810    1.6290 C   0  0  0  0  0  0  0  0  0  0  0  0
    8.8470   -3.8580    0.2990 N   0  0  0  0  0  0  0  0  0  0  0  0
    8.1520   -4.7860   -0.4220 C   0  0  0  0  0  0  0  0  0  0  0  0
    8.4160   -5.0050   -1.5980 O   0  0  0  0  0  0  0  0  0  0  0  0
    9.5500   -3.3370   -0.1980 H   0  0  0  0  0  0  0  0  0  0  0  0
    5.7850   -5.7330    2.3740 C   0  0  0  0  0  0  0  0  0  0  0  0
    4.7570   -4.9020    2.8380 C   0  0  0  0  0  3  0  0  0  0  0  0
    3.6910   -5.4500    3.5590 C   0  0  0  0  0  3  0  0  0  0  0  0
    3.6520   -6.8210    3.8040 C   0  0  0  0  0  0  0  0  0  0  0  0
    2.6250   -7.3370    4.4920 F   0  0  0  0  0  0  0  0  0  0  0  0
    4.6550   -7.6610    3.3440 C   0  0  0  0  0  3  0  0  0  0  0  0
    5.7140   -7.1110    2.6320 C   0  0  0  0  0  0  0  0  0  0  0  0
    6.6830   -7.9260    2.1880 F   0  0  0  0  0  0  0  0  0  0  0  0
    5.4200   -7.2300   -1.0910 N   0  0  0  0  0  1  0  0  0  0  0  0
    6.1700   -6.4380   -0.4580 C   0  0  0  0  0  2  0  0  0  0  0  0
    9.6180   -2.5030    2.4420 S   0  0  0  0  0  0  0  0  0  0  0  0
    8.8570   -0.9110    2.0750 C   0  0  0  0  0  2  0  0  0  0  0  0
    9.5430   -0.0310    1.0570 C   0  0  0  0  0  0  0  0  0  0  0  0
   10.0370   -0.6140   -0.1250 C   0  0  0  0  0  3  0  0  0  0  0  0
   10.6400    0.1610   -1.1180 C   0  0  0  0  0  3  0  0  0  0  0  0
   10.7580    1.5390   -0.9520 C   0  0  0  0  0  3  0  0  0  0  0  0
   10.2580    2.1340    0.2120 C   0  0  0  0  0  0  0  0  0  0  0  0
    9.6400    1.3610    1.2080 C   0  0  0  0  0  3  0  0  0  0  0  0
   10.3870    3.5830    0.3930 N   0  0  0  0  0  0  0  0  0  0  0  0
   11.5120    4.0320    0.6540 O   0  0  0  0  0  0  0  0  0  0  0  0
    9.3600    4.2680    0.2840 O   0  0  0  0  0  0  0  0  0  0  0  0
  1  2  2  0  0  0  0
  2  3  1  0  0  0  0
  2  9  1  0  0  0  0
  4  3  2  0  0  0  0
  4 19  1  0  0  0  0
  5  4  1  0  0  0  0
  6  5  1  0  0  0  0
  6  1  1  0  0  0  0
  7  6  2  0  0  0  0
  8  5  1  0  0  0  0
  9 15  2  0  0  0  0
  9 10  1  0  0  0  0
 10 11  2  0  0  0  0
 11 12  1  0  0  0  0
 12 13  1  0  0  0  0
 14 12  2  0  0  0  0
 15 14  1  0  0  0  0
 16 15  1  0  0  0  0
 17 18  1  0  0  0  0
 18  1  1  0  0  0  0
 20 19  1  0  0  0  0
 21 26  1  0  0  0  0
 21 20  1  0  0  0  0
 22 21  2  0  0  0  0
 23 24  2  0  0  0  0
 23 22  1  0  0  0  0
 24 25  1  0  0  0  0
 25 27  1  0  0  0  0
 25 26  2  0  0  0  0
 27 28  2  0  0  0  0
 29 27  2  0  0  0  0
M  END
>  <minimizedAffinity>
-7.84999704

$$$$

 OpenBabel09132200353D

 29 31  0  0  0  0  0  0  0  0999 V2000
    9.0390   -3.7160    0.7410 C   0  0  0  0  0  0  0  0  0  0  0  0
    8.4890   -3.5490    1.9580 C   0  0  0  0  0  0  0  0  0  0  0  0
    7.3590   -4.2070    2.3900 N   0  0  0  0  0  0  0  0  0  0  0  0
    6.8600   -5.1090    1.6140 C   0  0  0  0  0  0  0  0  0  0  0  0
    7.3700   -5.4130    0.3920 N   0  0  0  0  0  0  0  0  0  0  0  0
    8.4170   -4.7200   -0.1440 C   0  0  0  0  0  0  0  0  0  0  0  0
    8.8060   -4.9370   -1.2850 O   0  0  0  0  0  0  0  0  0  0  0  0
    6.9700   -6.1370   -0.1810 H   0  0  0  0  0  0  0  0  0  0  0  0
    9.1210   -2.6590    2.9500 C   0  0  0  0  0  0  0  0  0  0  0  0
    9.7970   -3.1860    4.0580 C   0  0  0  0  0  3  0  0  0  0  0  0
   10.3960   -2.3250    4.9830 C   0  0  0  0  0  3  0  0  0  0  0  0
   10.3260   -0.9470    4.7930 C   0  0  0  0  0  0  0  0  0  0  0  0
   10.9050   -0.1310    5.6830 F   0  0  0  0  0  0  0  0  0  0  0  0
    9.6700   -0.4060    3.6980 C   0  0  0  0  0  3  0  0  0  0  0  0
    9.0740   -1.2650    2.7830 C   0  0  0  0  0  0  0  0  0  0  0  0
    8.4400   -0.7400    1.7240 F   0  0  0  0  0  0  0  0  0  0  0  0
   11.3260   -2.3910   -0.1240 N   0  0  0  0  0  1  0  0  0  0  0  0
   10.2890   -2.9920    0.2680 C   0  0  0  0  0  2  0  0  0  0  0  0
    5.4990   -6.0330    2.1630 S   0  0  0  0  0  0  0  0  0  0  0  0
    4.1820   -4.8320    2.4300 C   0  0  0  0  0  2  0  0  0  0  0  0
    4.0150   -4.2810    3.8260 C   0  0  0  0  0  0  0  0  0  0  0  0
    4.8440   -4.7680    4.8540 C   0  0  0  0  0  3  0  0  0  0  0  0
    4.7600   -4.2630    6.1530 C   0  0  0  0  0  3  0  0  0  0  0  0
    3.8470   -3.2540    6.4520 C   0  0  0  0  0  3  0  0  0  0  0  0
    3.0260   -2.7510    5.4360 C   0  0  0  0  0  0  0  0  0  0  0  0
    3.1140   -3.2470    4.1260 C   0  0  0  0  0  3  0  0  0  0  0  0
    2.0590   -1.6950    5.7490 N   0  0  0  0  0  0  0  0  0  0  0  0
    1.1790   -1.4530    4.9100 O   0  0  0  0  0  0  0  0  0  0  0  0
    2.1860   -1.1030    6.8300 O   0  0  0  0  0  0  0  0  0  0  0  0
  1  2  2  0  0  0  0
  2  3  1  0  0  0  0
  2  9  1  0  0  0  0
  4 19  1  0  0  0  0
  4  3  2  0  0  0  0
  5  4  1  0  0  0  0
  6  5  1  0  0  0  0
  6  1  1  0  0  0  0
  7  6  2  0  0  0  0
  8  5  1  0  0  0  0
  9 10  1  0  0  0  0
 10 11  2  0  0  0  0
 12 11  1  0  0  0  0
 12 13  1  0  0  0  0
 14 12  2  0  0  0  0
 15  9  2  0  0  0  0
 15 14  1  0  0  0  0
 16 15  1  0  0  0  0
 17 18  1  0  0  0  0
 18  1  1  0  0  0  0
 19 20  1  0  0  0  0
 20 21  1  0  0  0  0
 21 26  2  0  0  0  0
 21 22  1  0  0  0  0
 22 23  2  0  0  0  0
 23 24  1  0  0  0  0
 25 27  1  0  0  0  0
 25 24  2  0  0  0  0
 26 25  1  0  0  0  0
 27 29  2  0  0  0  0
 28 27  2  0  0  0  0
M  END
>  <minimizedAffinity>
-7.76188469

$$$$

 OpenBabel09132200353D

 29 31  0  0  0  0  0  0  0  0999 V2000
    9.0730   -3.6790    0.7120 C   0  0  0  0  0  0  0  0  0  0  0  0
    8.5220   -3.5110    1.9270 C   0  0  0  0  0  0  0  0  0  0  0  0
    7.3950   -4.1750    2.3620 N   0  0  0  0  0  0  0  0  0  0  0  0
    6.9040   -5.0840    1.5900 C   0  0  0  0  0  0  0  0  0  0  0  0
    7.4160   -5.3890    0.3690 N   0  0  0  0  0  0  0  0  0  0  0  0
    8.4590   -4.6910   -0.1690 C   0  0  0  0  0  0  0  0  0  0  0  0
    8.8500   -4.9100   -1.3090 O   0  0  0  0  0  0  0  0  0  0  0  0
    7.0220   -6.1190   -0.2010 H   0  0  0  0  0  0  0  0  0  0  0  0
    9.1470   -2.6120    2.9160 C   0  0  0  0  0  0  0  0  0  0  0  0
    9.8280   -3.1300    4.0260 C   0  0  0  0  0  3  0  0  0  0  0  0
   10.4200   -2.2600    4.9470 C   0  0  0  0  0  3  0  0  0  0  0  0
   10.3390   -0.8830    4.7530 C   0  0  0  0  0  0  0  0  0  0  0  0
   10.9110   -0.0590    5.6390 F   0  0  0  0  0  0  0  0  0  0  0  0
    9.6780   -0.3510    3.6550 C   0  0  0  0  0  3  0  0  0  0  0  0
    9.0880   -1.2190    2.7440 C   0  0  0  0  0  0  0  0  0  0  0  0
    8.4490   -0.7030    1.6840 F   0  0  0  0  0  0  0  0  0  0  0  0
   11.3510   -2.3410   -0.1580 N   0  0  0  0  0  1  0  0  0  0  0  0
   10.3180   -2.9480    0.2360 C   0  0  0  0  0  2  0  0  0  0  0  0
    5.5490   -6.0150    2.1420 S   0  0  0  0  0  0  0  0  0  0  0  0
    4.2420   -4.8150    2.4610 C   0  0  0  0  0  2  0  0  0  0  0  0
    4.2240   -4.1510    3.8180 C   0  0  0  0  0  0  0  0  0  0  0  0
    3.2640   -3.1540    4.0740 C   0  0  0  0  0  3  0  0  0  0  0  0
    3.1750   -2.5390    5.3250 C   0  0  0  0  0  3  0  0  0  0  0  0
    4.0430   -2.9110    6.3490 C   0  0  0  0  0  3  0  0  0  0  0  0
    4.9920   -3.9120    6.1120 C   0  0  0  0  0  0  0  0  0  0  0  0
    5.0780   -4.5420    4.8600 C   0  0  0  0  0  3  0  0  0  0  0  0
    5.9120   -4.3010    7.1850 N   0  0  0  0  0  0  0  0  0  0  0  0
    7.0250   -3.7560    7.2150 O   0  0  0  0  0  0  0  0  0  0  0  0
    5.5230   -5.1580    7.9900 O   0  0  0  0  0  0  0  0  0  0  0  0
  1  2  2  0  0  0  0
  2  3  1  0  0  0  0
  2  9  1  0  0  0  0
  4 19  1  0  0  0  0
  4  3  2  0  0  0  0
  5  4  1  0  0  0  0
  6  5  1  0  0  0  0
  6  1  1  0  0  0  0
  7  6  2  0  0  0  0
  8  5  1  0  0  0  0
  9 10  1  0  0  0  0
 10 11  2  0  0  0  0
 12 11  1  0  0  0  0
 12 13  1  0  0  0  0
 14 12  2  0  0  0  0
 15  9  2  0  0  0  0
 15 14  1  0  0  0  0
 16 15  1  0  0  0  0
 17 18  1  0  0  0  0
 18  1  1  0  0  0  0
 19 20  1  0  0  0  0
 20 21  1  0  0  0  0
 21 22  2  0  0  0  0
 21 26  1  0  0  0  0
 22 23  1  0  0  0  0
 23 24  2  0  0  0  0
 25 24  1  0  0  0  0
 25 27  1  0  0  0  0
 26 25  2  0  0  0  0
 27 28  2  0  0  0  0
 27 29  2  0  0  0  0
M  END
>  <minimizedAffinity>
-7.69849825

$$$$

 OpenBabel09132200353D

 29 31  0  0  0  0  0  0  0  0999 V2000
    3.8410   -3.0640    5.8440 C   0  0  0  0  0  0  0  0  0  0  0  0
    4.7390   -4.0590    5.9590 C   0  0  0  0  0  0  0  0  0  0  0  0
    4.8000   -5.1450    5.1130 N   0  0  0  0  0  0  0  0  0  0  0  0
    4.0100   -5.1510    4.0930 C   0  0  0  0  0  0  0  0  0  0  0  0
    3.1090   -4.1670    3.8360 N   0  0  0  0  0  0  0  0  0  0  0  0
    2.9180   -3.1230    4.6940 C   0  0  0  0  0  0  0  0  0  0  0  0
    2.0370   -2.2950    4.5020 O   0  0  0  0  0  0  0  0  0  0  0  0
    2.5220   -4.1910    3.0190 H   0  0  0  0  0  0  0  0  0  0  0  0
    5.7790   -4.0140    7.0050 C   0  0  0  0  0  0  0  0  0  0  0  0
    5.6230   -4.7280    8.2000 C   0  0  0  0  0  3  0  0  0  0  0  0
    6.6240   -4.6780    9.1760 C   0  0  0  0  0  3  0  0  0  0  0  0
    7.7750   -3.9260    8.9510 C   0  0  0  0  0  0  0  0  0  0  0  0
    8.7280   -3.8870    9.8910 F   0  0  0  0  0  0  0  0  0  0  0  0
    7.9510   -3.2200    7.7710 C   0  0  0  0  0  3  0  0  0  0  0  0
    6.9530   -3.2700    6.8060 C   0  0  0  0  0  0  0  0  0  0  0  0
    7.1260   -2.5860    5.6640 F   0  0  0  0  0  0  0  0  0  0  0  0
    3.7270   -0.8710    7.5500 N   0  0  0  0  0  1  0  0  0  0  0  0
    3.7790   -1.8650    6.7760 C   0  0  0  0  0  2  0  0  0  0  0  0
    4.1260   -6.4470    2.9470 S   0  0  0  0  0  0  0  0  0  0  0  0
    5.8900   -6.6650    2.6460 C   0  0  0  0  0  2  0  0  0  0  0  0
    6.4390   -6.1620    1.3320 C   0  0  0  0  0  0  0  0  0  0  0  0
    5.7200   -6.4220    0.1500 C   0  0  0  0  0  3  0  0  0  0  0  0
    6.1610   -5.9430   -1.0860 C   0  0  0  0  0  3  0  0  0  0  0  0
    7.3290   -5.1890   -1.1650 C   0  0  0  0  0  3  0  0  0  0  0  0
    8.0460   -4.9100    0.0040 C   0  0  0  0  0  0  0  0  0  0  0  0
    7.6010   -5.3790    1.2510 C   0  0  0  0  0  3  0  0  0  0  0  0
    9.2800   -4.1230   -0.0770 N   0  0  0  0  0  0  0  0  0  0  0  0
    9.9260   -4.1730   -1.1330 O   0  0  0  0  0  0  0  0  0  0  0  0
    9.6050   -3.4630    0.9210 O   0  0  0  0  0  0  0  0  0  0  0  0
  1  2  2  0  0  0  0
  1 18  1  0  0  0  0
  2  9  1  0  0  0  0
  3  2  1  0  0  0  0
  4  3  2  0  0  0  0
  5  4  1  0  0  0  0
  5  6  1  0  0  0  0
  6  1  1  0  0  0  0
  7  6  2  0  0  0  0
  8  5  1  0  0  0  0
  9 10  1  0  0  0  0
 10 11  2  0  0  0  0
 12 11  1  0  0  0  0
 12 13  1  0  0  0  0
 14 12  2  0  0  0  0
 15  9  2  0  0  0  0
 15 14  1  0  0  0  0
 16 15  1  0  0  0  0
 18 17  1  0  0  0  0
 19  4  1  0  0  0  0
 20 19  1  0  0  0  0
 21 20  1  0  0  0  0
 22 21  2  0  0  0  0
 23 22  1  0  0  0  0
 24 23  2  0  0  0  0
 24 25  1  0  0  0  0
 25 26  2  0  0  0  0
 26 21  1  0  0  0  0
 27 25  1  0  0  0  0
 27 29  2  0  0  0  0
 28 27  2  0  0  0  0
M  END
>  <minimizedAffinity>
-7.6725564

$$$$

 OpenBabel09132200353D

 29 31  0  0  0  0  0  0  0  0999 V2000
    8.5920   -3.6280    1.0560 C   0  0  0  0  0  0  0  0  0  0  0  0
    9.5100   -2.6490    1.1430 C   0  0  0  0  0  0  0  0  0  0  0  0
    9.7680   -1.9330    2.2920 N   0  0  0  0  0  0  0  0  0  0  0  0
    9.1600   -2.2970    3.3700 C   0  0  0  0  0  0  0  0  0  0  0  0
    8.2630   -3.3160    3.4180 N   0  0  0  0  0  0  0  0  0  0  0  0
    7.8770   -3.9890    2.2950 C   0  0  0  0  0  0  0  0  0  0  0  0
    6.9970   -4.8400    2.3350 O   0  0  0  0  0  0  0  0  0  0  0  0
    7.8220   -3.5890    4.2810 H   0  0  0  0  0  0  0  0  0  0  0  0
   10.3570   -2.3100   -0.0170 C   0  0  0  0  0  0  0  0  0  0  0  0
   11.2590   -3.2460   -0.5420 C   0  0  0  0  0  3  0  0  0  0  0  0
   12.0470   -2.9080   -1.6460 C   0  0  0  0  0  3  0  0  0  0  0  0
   11.9260   -1.6470   -2.2250 C   0  0  0  0  0  0  0  0  0  0  0  0
   12.6830   -1.3340   -3.2840 F   0  0  0  0  0  0  0  0  0  0  0  0
   11.0320   -0.7110   -1.7260 C   0  0  0  0  0  3  0  0  0  0  0  0
   10.2540   -1.0500   -0.6270 C   0  0  0  0  0  0  0  0  0  0  0  0
    9.3900   -0.1430   -0.1450 F   0  0  0  0  0  0  0  0  0  0  0  0
    8.0800   -5.0740   -1.2630 N   0  0  0  0  0  1  0  0  0  0  0  0
    8.3120   -4.4190   -0.2120 C   0  0  0  0  0  2  0  0  0  0  0  0
    9.5330   -1.4900    4.8590 S   0  0  0  0  0  0  0  0  0  0  0  0
    8.7890   -2.5020    6.1520 C   0  0  0  0  0  2  0  0  0  0  0  0
    7.4700   -2.0390    6.7250 C   0  0  0  0  0  0  0  0  0  0  0  0
    7.4660   -0.9840    7.6560 C   0  0  0  0  0  3  0  0  0  0  0  0
    6.2720   -0.4890    8.1840 C   0  0  0  0  0  3  0  0  0  0  0  0
    5.0540   -1.0360    7.7880 C   0  0  0  0  0  3  0  0  0  0  0  0
    5.0430   -2.0760    6.8510 C   0  0  0  0  0  0  0  0  0  0  0  0
    6.2390   -2.5700    6.3080 C   0  0  0  0  0  3  0  0  0  0  0  0
    3.7630   -2.6600    6.4380 N   0  0  0  0  0  0  0  0  0  0  0  0
    3.3890   -2.4610    5.2730 O   0  0  0  0  0  0  0  0  0  0  0  0
    3.1290   -3.3070    7.2830 O   0  0  0  0  0  0  0  0  0  0  0  0
  1  2  2  0  0  0  0
  1  6  1  0  0  0  0
  2  3  1  0  0  0  0
  3  4  2  0  0  0  0
  4  5  1  0  0  0  0
  4 19  1  0  0  0  0
  5  8  1  0  0  0  0
  6  7  2  0  0  0  0
  6  5  1  0  0  0  0
  9  2  1  0  0  0  0
 10  9  1  0  0  0  0
 11 10  2  0  0  0  0
 12 14  2  0  0  0  0
 12 11  1  0  0  0  0
 13 12  1  0  0  0  0
 14 15  1  0  0  0  0
 15 16  1  0  0  0  0
 15  9  2  0  0  0  0
 17 18  1  0  0  0  0
 18  1  1  0  0  0  0
 19 20  1  0  0  0  0
 20 21  1  0  0  0  0
 21 22  1  0  0  0  0
 22 23  2  0  0  0  0
 24 23  1  0  0  0  0
 25 24  2  0  0  0  0
 26 21  2  0  0  0  0
 26 25  1  0  0  0  0
 27 25  1  0  0  0  0
 27 29  2  0  0  0  0
 28 27  2  0  0  0  0
M  END
>  <minimizedAffinity>
-7.59294558

$$$$

 OpenBabel09132200353D

 29 31  0  0  0  0  0  0  0  0999 V2000
    3.6970   -6.0350    4.9510 C   0  0  0  0  0  0  0  0  0  0  0  0
    4.4820   -5.0020    4.5940 C   0  0  0  0  0  0  0  0  0  0  0  0
    5.1470   -4.9190    3.3900 N   0  0  0  0  0  0  0  0  0  0  0  0
    4.9200   -5.8410    2.5180 C   0  0  0  0  0  0  0  0  0  0  0  0
    4.0930   -6.8960    2.7400 N   0  0  0  0  0  0  0  0  0  0  0  0
    3.4950   -7.1000    3.9500 C   0  0  0  0  0  0  0  0  0  0  0  0
    2.8300   -8.1050    4.1690 O   0  0  0  0  0  0  0  0  0  0  0  0
    3.9200   -7.5880    2.0300 H   0  0  0  0  0  0  0  0  0  0  0  0
    4.6380   -3.8360    5.4850 C   0  0  0  0  0  0  0  0  0  0  0  0
    5.8060   -3.6630    6.2400 C   0  0  0  0  0  3  0  0  0  0  0  0
    5.9370   -2.5470    7.0720 C   0  0  0  0  0  3  0  0  0  0  0  0
    4.9110   -1.6080    7.1400 C   0  0  0  0  0  0  0  0  0  0  0  0
    5.0470   -0.5410    7.9380 F   0  0  0  0  0  0  0  0  0  0  0  0
    3.7510   -1.7570    6.3930 C   0  0  0  0  0  3  0  0  0  0  0  0
    3.6240   -2.8690    5.5700 C   0  0  0  0  0  0  0  0  0  0  0  0
    2.5020   -3.0110    4.8480 F   0  0  0  0  0  0  0  0  0  0  0  0
    2.3510   -6.1960    7.3790 N   0  0  0  0  0  1  0  0  0  0  0  0
    2.9620   -6.1230    6.2780 C   0  0  0  0  0  2  0  0  0  0  0  0
    5.6560   -5.7190    0.9530 S   0  0  0  0  0  0  0  0  0  0  0  0
    7.4310   -5.8220    1.2490 C   0  0  0  0  0  2  0  0  0  0  0  0
    8.2360   -4.5530    1.1000 C   0  0  0  0  0  0  0  0  0  0  0  0
    8.1690   -3.5820    2.1160 C   0  0  0  0  0  3  0  0  0  0  0  0
    8.9260   -2.4100    2.0490 C   0  0  0  0  0  3  0  0  0  0  0  0
    9.7710   -2.1860    0.9640 C   0  0  0  0  0  3  0  0  0  0  0  0
    9.8590   -3.1510   -0.0460 C   0  0  0  0  0  0  0  0  0  0  0  0
    9.1090   -4.3360    0.0220 C   0  0  0  0  0  3  0  0  0  0  0  0
   10.7410   -2.9160   -1.1930 N   0  0  0  0  0  0  0  0  0  0  0  0
   10.6720   -1.8130   -1.7550 O   0  0  0  0  0  0  0  0  0  0  0  0
   11.4940   -3.8380   -1.5350 O   0  0  0  0  0  0  0  0  0  0  0  0
  1 18  1  0  0  0  0
  2  1  2  0  0  0  0
  2  9  1  0  0  0  0
  3  2  1  0  0  0  0
  4  5  1  0  0  0  0
  4  3  2  0  0  0  0
  5  6  1  0  0  0  0
  6  7  2  0  0  0  0
  6  1  1  0  0  0  0
  8  5  1  0  0  0  0
  9 15  2  0  0  0  0
  9 10  1  0  0  0  0
 10 11  2  0  0  0  0
 11 12  1  0  0  0  0
 12 13  1  0  0  0  0
 14 12  2  0  0  0  0
 15 14  1  0  0  0  0
 16 15  1  0  0  0  0
 18 17  1  0  0  0  0
 19 20  1  0  0  0  0
 19  4  1  0  0  0  0
 21 20  1  0  0  0  0
 21 22  1  0  0  0  0
 23 22  2  0  0  0  0
 24 23  1  0  0  0  0
 25 26  1  0  0  0  0
 25 24  2  0  0  0  0
 26 21  2  0  0  0  0
 27 25  1  0  0  0  0
 28 27  2  0  0  0  0
 29 27  2  0  0  0  0
M  END
>  <minimizedAffinity>
-7.56538725

$$$$

 OpenBabel09132200353D

 29 31  0  0  0  0  0  0  0  0999 V2000
    6.0850   -5.4910    1.2900 C   0  0  0  0  0  0  0  0  0  0  0  0
    5.9620   -4.9420    2.5110 C   0  0  0  0  0  0  0  0  0  0  0  0
    6.9210   -4.1460    3.0990 N   0  0  0  0  0  0  0  0  0  0  0  0
    7.9520   -3.8330    2.3910 C   0  0  0  0  0  0  0  0  0  0  0  0
    8.1520   -4.2720    1.1210 N   0  0  0  0  0  0  0  0  0  0  0  0
    7.2990   -5.1540    0.5220 C   0  0  0  0  0  0  0  0  0  0  0  0
    7.5400   -5.6180   -0.5860 O   0  0  0  0  0  0  0  0  0  0  0  0
    8.9570   -3.9920    0.5870 H   0  0  0  0  0  0  0  0  0  0  0  0
    4.7250   -5.1250    3.2950 C   0  0  0  0  0  0  0  0  0  0  0  0
    4.4070   -6.3730    3.8480 C   0  0  0  0  0  3  0  0  0  0  0  0
    3.2330   -6.5240    4.5940 C   0  0  0  0  0  3  0  0  0  0  0  0
    2.3910   -5.4320    4.7920 C   0  0  0  0  0  0  0  0  0  0  0  0
    1.2720   -5.5860    5.5100 F   0  0  0  0  0  0  0  0  0  0  0  0
    2.6940   -4.1870    4.2600 C   0  0  0  0  0  3  0  0  0  0  0  0
    3.8590   -4.0420    3.5170 C   0  0  0  0  0  0  0  0  0  0  0  0
    4.1500   -2.8370    3.0040 F   0  0  0  0  0  0  0  0  0  0  0  0
    4.1430   -7.0900    0.1030 N   0  0  0  0  0  1  0  0  0  0  0  0
    5.0240   -6.3650    0.6410 C   0  0  0  0  0  2  0  0  0  0  0  0
    9.1320   -2.7510    3.0560 S   0  0  0  0  0  0  0  0  0  0  0  0
    8.9980   -1.2390    2.0840 C   0  0  0  0  0  2  0  0  0  0  0  0
    9.7500   -1.1840    0.7760 C   0  0  0  0  0  0  0  0  0  0  0  0
    9.7550    0.0180    0.0430 C   0  0  0  0  0  3  0  0  0  0  0  0
   10.4700    0.1350   -1.1510 C   0  0  0  0  0  3  0  0  0  0  0  0
   11.2010   -0.9460   -1.6360 C   0  0  0  0  0  3  0  0  0  0  0  0
   11.2170   -2.1430   -0.9100 C   0  0  0  0  0  0  0  0  0  0  0  0
   10.5100   -2.2630    0.2970 C   0  0  0  0  0  3  0  0  0  0  0  0
   11.9800   -3.2860   -1.4210 N   0  0  0  0  0  0  0  0  0  0  0  0
   11.8750   -4.3640   -0.8180 O   0  0  0  0  0  0  0  0  0  0  0  0
   12.6890   -3.1010   -2.4200 O   0  0  0  0  0  0  0  0  0  0  0  0
  1  2  2  0  0  0  0
  2  3  1  0  0  0  0
  2  9  1  0  0  0  0
  4 19  1  0  0  0  0
  4  3  2  0  0  0  0
  5  4  1  0  0  0  0
  6  5  1  0  0  0  0
  6  1  1  0  0  0  0
  7  6  2  0  0  0  0
  8  5  1  0  0  0  0
  9 15  2  0  0  0  0
  9 10  1  0  0  0  0
 10 11  2  0  0  0  0
 11 12  1  0  0  0  0
 12 13  1  0  0  0  0
 14 12  2  0  0  0  0
 15 14  1  0  0  0  0
 16 15  1  0  0  0  0
 17 18  1  0  0  0  0
 18  1  1  0  0  0  0
 20 19  1  0  0  0  0
 21 20  1  0  0  0  0
 22 21  2  0  0  0  0
 23 22  1  0  0  0  0
 24 23  2  0  0  0  0
 24 25  1  0  0  0  0
 25 26  2  0  0  0  0
 26 21  1  0  0  0  0
 27 25  1  0  0  0  0
 27 28  2  0  0  0  0
 29 27  2  0  0  0  0
M  END
>  <minimizedAffinity>
-7.56222296

$$$$

 OpenBabel09132200353D

 29 31  0  0  0  0  0  0  0  0999 V2000
    4.0310   -2.9160    5.3660 C   0  0  0  0  0  0  0  0  0  0  0  0
    5.1500   -3.6610    5.3180 C   0  0  0  0  0  0  0  0  0  0  0  0
    5.4740   -4.5020    4.2760 N   0  0  0  0  0  0  0  0  0  0  0  0
    4.7020   -4.4940    3.2420 C   0  0  0  0  0  0  0  0  0  0  0  0
    3.5820   -3.7310    3.1480 N   0  0  0  0  0  0  0  0  0  0  0  0
    3.1430   -2.9650    4.1890 C   0  0  0  0  0  0  0  0  0  0  0  0
    2.0810   -2.3580    4.1270 O   0  0  0  0  0  0  0  0  0  0  0  0
    3.0120   -3.7320    2.3180 H   0  0  0  0  0  0  0  0  0  0  0  0
    6.1540   -3.5750    6.3970 C   0  0  0  0  0  0  0  0  0  0  0  0
    7.2970   -2.7780    6.2490 C   0  0  0  0  0  3  0  0  0  0  0  0
    8.2330   -2.7040    7.2860 C   0  0  0  0  0  3  0  0  0  0  0  0
    8.0190   -3.4150    8.4650 C   0  0  0  0  0  0  0  0  0  0  0  0
    8.9190   -3.3350    9.4530 F   0  0  0  0  0  0  0  0  0  0  0  0
    6.8890   -4.2010    8.6340 C   0  0  0  0  0  3  0  0  0  0  0  0
    5.9640   -4.2740    7.5990 C   0  0  0  0  0  0  0  0  0  0  0  0
    4.8720   -5.0350    7.7650 F   0  0  0  0  0  0  0  0  0  0  0  0
    3.3870   -1.2140    7.4690 N   0  0  0  0  0  1  0  0  0  0  0  0
    3.6790   -1.9860    6.5150 C   0  0  0  0  0  2  0  0  0  0  0  0
    5.1290   -5.4600    1.8670 S   0  0  0  0  0  0  0  0  0  0  0  0
    6.8990   -5.7610    2.0240 C   0  0  0  0  0  2  0  0  0  0  0  0
    7.8350   -4.6830    1.5330 C   0  0  0  0  0  0  0  0  0  0  0  0
    8.4390   -4.8280    0.2710 C   0  0  0  0  0  3  0  0  0  0  0  0
    9.2790   -3.8400   -0.2480 C   0  0  0  0  0  3  0  0  0  0  0  0
    9.5290   -2.6820    0.4830 C   0  0  0  0  0  3  0  0  0  0  0  0
    8.9230   -2.5170    1.7330 C   0  0  0  0  0  0  0  0  0  0  0  0
    8.0680   -3.5020    2.2550 C   0  0  0  0  0  3  0  0  0  0  0  0
    9.1900   -1.3020    2.5090 N   0  0  0  0  0  0  0  0  0  0  0  0
    9.6070   -1.4390    3.6680 O   0  0  0  0  0  0  0  0  0  0  0  0
    8.9710   -0.2130    1.9610 O   0  0  0  0  0  0  0  0  0  0  0  0
  1 18  1  0  0  0  0
  2  1  2  0  0  0  0
  2  9  1  0  0  0  0
  3  2  1  0  0  0  0
  4  3  2  0  0  0  0
  5  4  1  0  0  0  0
  5  6  1  0  0  0  0
  6  1  1  0  0  0  0
  7  6  2  0  0  0  0
  8  5  1  0  0  0  0
  9 15  1  0  0  0  0
 10  9  2  0  0  0  0
 10 11  1  0  0  0  0
 11 12  2  0  0  0  0
 12 14  1  0  0  0  0
 12 13  1  0  0  0  0
 15 16  1  0  0  0  0
 15 14  2  0  0  0  0
 18 17  1  0  0  0  0
 19 20  1  0  0  0  0
 19  4  1  0  0  0  0
 21 20  1  0  0  0  0
 21 26  1  0  0  0  0
 22 21  2  0  0  0  0
 23 22  1  0  0  0  0
 23 24  2  0  0  0  0
 24 25  1  0  0  0  0
 25 26  2  0  0  0  0
 25 27  1  0  0  0  0
 27 28  2  0  0  0  0
 29 27  2  0  0  0  0
M  END
>  <minimizedAffinity>
-7.5213027

$$$$

 OpenBabel09132200353D

 29 31  0  0  0  0  0  0  0  0999 V2000
    4.0770   -6.0740    3.8360 C   0  0  0  0  0  0  0  0  0  0  0  0
    4.8330   -4.9680    3.9600 C   0  0  0  0  0  0  0  0  0  0  0  0
    5.9120   -4.6770    3.1540 N   0  0  0  0  0  0  0  0  0  0  0  0
    6.1430   -5.4650    2.1590 C   0  0  0  0  0  0  0  0  0  0  0  0
    5.4050   -6.5730    1.8930 N   0  0  0  0  0  0  0  0  0  0  0  0
    4.3970   -6.9820    2.7180 C   0  0  0  0  0  0  0  0  0  0  0  0
    3.8030   -8.0350    2.5210 O   0  0  0  0  0  0  0  0  0  0  0  0
    5.5990   -7.1570    1.0960 H   0  0  0  0  0  0  0  0  0  0  0  0
    4.5050   -3.9460    4.9720 C   0  0  0  0  0  0  0  0  0  0  0  0
    5.3010   -3.7870    6.1140 C   0  0  0  0  0  3  0  0  0  0  0  0
    4.9770   -2.8070    7.0580 C   0  0  0  0  0  3  0  0  0  0  0  0
    3.8710   -1.9850    6.8520 C   0  0  0  0  0  0  0  0  0  0  0  0
    3.5710   -1.0480    7.7590 F   0  0  0  0  0  0  0  0  0  0  0  0
    3.0770   -2.1200    5.7230 C   0  0  0  0  0  3  0  0  0  0  0  0
    3.4010   -3.0980    4.7900 C   0  0  0  0  0  0  0  0  0  0  0  0
    2.6310   -3.2260    3.6990 F   0  0  0  0  0  0  0  0  0  0  0  0
    1.8970   -6.6550    5.4620 N   0  0  0  0  0  1  0  0  0  0  0  0
    2.8860   -6.3920    4.7240 C   0  0  0  0  0  2  0  0  0  0  0  0
    7.4270   -5.0770    1.0600 S   0  0  0  0  0  0  0  0  0  0  0  0
    8.4860   -3.9210    1.9480 C   0  0  0  0  0  2  0  0  0  0  0  0
    9.1410   -2.8210    1.1470 C   0  0  0  0  0  0  0  0  0  0  0  0
    9.8080   -3.1530   -0.0470 C   0  0  0  0  0  3  0  0  0  0  0  0
   10.3930   -2.1690   -0.8470 C   0  0  0  0  0  3  0  0  0  0  0  0
   10.3200   -0.8290   -0.4720 C   0  0  0  0  0  3  0  0  0  0  0  0
    9.6470   -0.4840    0.7050 C   0  0  0  0  0  0  0  0  0  0  0  0
    9.0460   -1.4670    1.5080 C   0  0  0  0  0  3  0  0  0  0  0  0
    9.5750    0.9240    1.1070 N   0  0  0  0  0  0  0  0  0  0  0  0
   10.2480    1.7420    0.4640 O   0  0  0  0  0  0  0  0  0  0  0  0
    8.8510    1.2080    2.0730 O   0  0  0  0  0  0  0  0  0  0  0  0
  1  2  2  0  0  0  0
  1 18  1  0  0  0  0
  2  9  1  0  0  0  0
  3  2  1  0  0  0  0
  4  3  2  0  0  0  0
  5  4  1  0  0  0  0
  5  6  1  0  0  0  0
  6  1  1  0  0  0  0
  7  6  2  0  0  0  0
  8  5  1  0  0  0  0
  9 10  1  0  0  0  0
 10 11  2  0  0  0  0
 12 11  1  0  0  0  0
 12 13  1  0  0  0  0
 14 12  2  0  0  0  0
 15  9  2  0  0  0  0
 15 14  1  0  0  0  0
 16 15  1  0  0  0  0
 18 17  1  0  0  0  0
 19 20  1  0  0  0  0
 19  4  1  0  0  0  0
 21 26  1  0  0  0  0
 21 20  1  0  0  0  0
 22 21  2  0  0  0  0
 23 24  2  0  0  0  0
 23 22  1  0  0  0  0
 24 25  1  0  0  0  0
 25 27  1  0  0  0  0
 25 26  2  0  0  0  0
 27 29  2  0  0  0  0
 28 27  2  0  0  0  0
M  END
>  <minimizedAffinity>
-7.46832705

$$$$
