
 OpenBabel09132204463D

 29 31  0  0  0  0  0  0  0  0999 V2000
    8.5920   -3.6280    1.0560 C   0  0  0  0  0  0  0  0  0  0  0  0
    9.5100   -2.6490    1.1430 C   0  0  0  0  0  0  0  0  0  0  0  0
    9.7680   -1.9330    2.2920 N   0  0  0  0  0  0  0  0  0  0  0  0
    9.1600   -2.2970    3.3700 C   0  0  0  0  0  0  0  0  0  0  0  0
    8.2630   -3.3160    3.4180 N   0  0  0  0  0  0  0  0  0  0  0  0
    7.8770   -3.9890    2.2950 C   0  0  0  0  0  0  0  0  0  0  0  0
    6.9970   -4.8400    2.3350 O   0  0  0  0  0  0  0  0  0  0  0  0
    7.8220   -3.5890    4.2810 H   0  0  0  0  0  0  0  0  0  0  0  0
   10.3570   -2.3100   -0.0170 C   0  0  0  0  0  0  0  0  0  0  0  0
   11.2590   -3.2460   -0.5420 C   0  0  0  0  0  3  0  0  0  0  0  0
   12.0470   -2.9080   -1.6460 C   0  0  0  0  0  3  0  0  0  0  0  0
   11.9260   -1.6470   -2.2250 C   0  0  0  0  0  0  0  0  0  0  0  0
   12.6830   -1.3340   -3.2840 F   0  0  0  0  0  0  0  0  0  0  0  0
   11.0320   -0.7110   -1.7260 C   0  0  0  0  0  3  0  0  0  0  0  0
   10.2540   -1.0500   -0.6270 C   0  0  0  0  0  0  0  0  0  0  0  0
    9.3900   -0.1430   -0.1450 F   0  0  0  0  0  0  0  0  0  0  0  0
    8.0800   -5.0740   -1.2630 N   0  0  0  0  0  1  0  0  0  0  0  0
    8.3120   -4.4190   -0.2120 C   0  0  0  0  0  2  0  0  0  0  0  0
    9.5330   -1.4900    4.8590 S   0  0  0  0  0  0  0  0  0  0  0  0
    8.7890   -2.5020    6.1520 C   0  0  0  0  0  2  0  0  0  0  0  0
    7.4700   -2.0390    6.7250 C   0  0  0  0  0  0  0  0  0  0  0  0
    7.4660   -0.9840    7.6560 C   0  0  0  0  0  3  0  0  0  0  0  0
    6.2720   -0.4890    8.1840 C   0  0  0  0  0  3  0  0  0  0  0  0
    5.0540   -1.0360    7.7880 C   0  0  0  0  0  3  0  0  0  0  0  0
    5.0430   -2.0760    6.8510 C   0  0  0  0  0  0  0  0  0  0  0  0
    6.2390   -2.5700    6.3080 C   0  0  0  0  0  3  0  0  0  0  0  0
    3.7630   -2.6600    6.4380 N   0  0  0  0  0  0  0  0  0  0  0  0
    3.3890   -2.4610    5.2730 O   0  0  0  0  0  0  0  0  0  0  0  0
    3.1290   -3.3070    7.2830 O   0  0  0  0  0  0  0  0  0  0  0  0
  1  2  2  0  0  0  0
  1  6  1  0  0  0  0
  2  3  1  0  0  0  0
  3  4  2  0  0  0  0
  4  5  1  0  0  0  0
  4 19  1  0  0  0  0
  5  8  1  0  0  0  0
  6  7  2  0  0  0  0
  6  5  1  0  0  0  0
  9  2  1  0  0  0  0
 10  9  1  0  0  0  0
 11 10  2  0  0  0  0
 12 14  2  0  0  0  0
 12 11  1  0  0  0  0
 13 12  1  0  0  0  0
 14 15  1  0  0  0  0
 15 16  1  0  0  0  0
 15  9  2  0  0  0  0
 17 18  1  0  0  0  0
 18  1  1  0  0  0  0
 19 20  1  0  0  0  0
 20 21  1  0  0  0  0
 21 22  1  0  0  0  0
 22 23  2  0  0  0  0
 24 23  1  0  0  0  0
 25 24  2  0  0  0  0
 26 21  2  0  0  0  0
 26 25  1  0  0  0  0
 27 25  1  0  0  0  0
 27 29  2  0  0  0  0
 28 27  2  0  0  0  0
M  END
>  <minimizedAffinity>
-7.59294558

$$$$
