
 OpenBabel09132204463D

 29 31  0  0  0  0  0  0  0  0999 V2000
    7.0740   -5.4840    0.3050 C   0  0  0  0  0  0  0  0  0  0  0  0
    6.9150   -5.1760    1.6050 C   0  0  0  0  0  0  0  0  0  0  0  0
    7.7310   -4.3080    2.2980 N   0  0  0  0  0  0  0  0  0  0  0  0
    8.6380   -3.6810    1.6290 C   0  0  0  0  0  0  0  0  0  0  0  0
    8.8470   -3.8580    0.2990 N   0  0  0  0  0  0  0  0  0  0  0  0
    8.1520   -4.7860   -0.4220 C   0  0  0  0  0  0  0  0  0  0  0  0
    8.4160   -5.0050   -1.5980 O   0  0  0  0  0  0  0  0  0  0  0  0
    9.5500   -3.3370   -0.1980 H   0  0  0  0  0  0  0  0  0  0  0  0
    5.7850   -5.7330    2.3740 C   0  0  0  0  0  0  0  0  0  0  0  0
    4.7570   -4.9020    2.8380 C   0  0  0  0  0  3  0  0  0  0  0  0
    3.6910   -5.4500    3.5590 C   0  0  0  0  0  3  0  0  0  0  0  0
    3.6520   -6.8210    3.8040 C   0  0  0  0  0  0  0  0  0  0  0  0
    2.6250   -7.3370    4.4920 F   0  0  0  0  0  0  0  0  0  0  0  0
    4.6550   -7.6610    3.3440 C   0  0  0  0  0  3  0  0  0  0  0  0
    5.7140   -7.1110    2.6320 C   0  0  0  0  0  0  0  0  0  0  0  0
    6.6830   -7.9260    2.1880 F   0  0  0  0  0  0  0  0  0  0  0  0
    5.4200   -7.2300   -1.0910 N   0  0  0  0  0  1  0  0  0  0  0  0
    6.1700   -6.4380   -0.4580 C   0  0  0  0  0  2  0  0  0  0  0  0
    9.6180   -2.5030    2.4420 S   0  0  0  0  0  0  0  0  0  0  0  0
    8.8570   -0.9110    2.0750 C   0  0  0  0  0  2  0  0  0  0  0  0
    9.5430   -0.0310    1.0570 C   0  0  0  0  0  0  0  0  0  0  0  0
   10.0370   -0.6140   -0.1250 C   0  0  0  0  0  3  0  0  0  0  0  0
   10.6400    0.1610   -1.1180 C   0  0  0  0  0  3  0  0  0  0  0  0
   10.7580    1.5390   -0.9520 C   0  0  0  0  0  3  0  0  0  0  0  0
   10.2580    2.1340    0.2120 C   0  0  0  0  0  0  0  0  0  0  0  0
    9.6400    1.3610    1.2080 C   0  0  0  0  0  3  0  0  0  0  0  0
   10.3870    3.5830    0.3930 N   0  0  0  0  0  0  0  0  0  0  0  0
   11.5120    4.0320    0.6540 O   0  0  0  0  0  0  0  0  0  0  0  0
    9.3600    4.2680    0.2840 O   0  0  0  0  0  0  0  0  0  0  0  0
  1  2  2  0  0  0  0
  2  3  1  0  0  0  0
  2  9  1  0  0  0  0
  4  3  2  0  0  0  0
  4 19  1  0  0  0  0
  5  4  1  0  0  0  0
  6  5  1  0  0  0  0
  6  1  1  0  0  0  0
  7  6  2  0  0  0  0
  8  5  1  0  0  0  0
  9 15  2  0  0  0  0
  9 10  1  0  0  0  0
 10 11  2  0  0  0  0
 11 12  1  0  0  0  0
 12 13  1  0  0  0  0
 14 12  2  0  0  0  0
 15 14  1  0  0  0  0
 16 15  1  0  0  0  0
 17 18  1  0  0  0  0
 18  1  1  0  0  0  0
 20 19  1  0  0  0  0
 21 26  1  0  0  0  0
 21 20  1  0  0  0  0
 22 21  2  0  0  0  0
 23 24  2  0  0  0  0
 23 22  1  0  0  0  0
 24 25  1  0  0  0  0
 25 27  1  0  0  0  0
 25 26  2  0  0  0  0
 27 28  2  0  0  0  0
 29 27  2  0  0  0  0
M  END
>  <minimizedAffinity>
-7.84999704

$$$$
