
 OpenBabel09132204463D

 32 31  0  0  1  0  0  0  0  0999 V2000
    8.4610   -2.8820    2.3890 C   0  0  0  0  0  0  0  0  0  0  0  0
    8.5790   -4.5100    1.2930 C   0  0  0  0  0  2  0  0  0  0  0  0
    9.1620   -4.1890   -0.3350 C   0  0  0  0  0  1  0  0  0  0  0  0
    9.8910   -2.0220   -0.6050 S   0  0  0  0  0 15  0  0  0  0  0  0
    9.1520   -1.4650    1.5470 C   0  0  0  0  0  2  0  0  0  0  0  0
    9.4910   -0.1240    2.0170 C   0  0  0  0  0  0  0  0  0  0  0  0
    9.5850    0.0820    3.3360 N   0  0  0  0  0  0  0  0  0  0  0  0
    9.8890    1.3450    3.6610 C   0  0  0  0  0  0  0  0  0  0  0  0
   10.0920    2.3730    2.7630 C   0  0  0  0  0  0  0  0  0  0  0  0
    9.9720    2.0530    1.4210 C   0  0  0  0  0  0  0  0  0  0  0  0
    9.6800    0.7760    1.0390 N   0  0  0  0  0  0  0  0  0  0  0  0
   10.1590    3.1490    0.3780 C   0  0  0  0  0  0  0  0  0  0  0  0
    9.2860    4.0860    0.4100 O   0  0  0  0  0  1  0  0  0  0  0  0
   11.1300    3.0580   -0.4320 O   0  0  0  0  0  0  0  0  0  0  0  0
   10.0040    1.6080    5.0040 O   0  0  0  0  0  0  0  0  0  0  0  0
   10.2110    2.5640    5.0180 H   0  0  0  0  0  0  0  0  0  0  0  0
   10.3890    3.6210    3.2450 O   0  0  0  0  0  0  0  0  0  0  0  0
   10.4870    4.1970    2.4310 H   0  0  0  0  0  0  0  0  0  0  0  0
    6.5220   -3.5300    5.2840 O   0  0  0  0  0  0  0  0  0  0  0  0
    6.9560   -3.6240    4.1420 C   0  0  0  0  0  0  0  0  0  0  0  0
    7.9620   -2.8140    3.6770 N   0  0  0  0  0  4  0  0  0  0  0  0
    7.9760   -1.9020    4.1410 H   0  0  0  0  0  0  0  0  0  0  0  0
    6.3130   -4.4050    3.2260 O   0  0  0  0  0  0  0  0  0  0  0  0
    5.0240   -3.9950    2.7610 C   0  0  0  0  0  2  0  0  0  0  0  0
    3.8790   -4.8820    3.3800 C   0  0  2  0  0  3  0  0  0  0  0  0
    2.9380   -4.4590    4.5880 C   0  0  0  0  0  2  0  0  0  0  0  0
    1.8090   -2.2420    5.0220 Cl  0  0  0  0  0 15  0  0  0  0  0  0
    2.9840   -5.6890    5.5110 C   0  0  0  0  0  2  0  0  0  0  0  0
    3.3390   -7.0050    5.1640 C   0  0  0  0  0  3  0  0  0  0  0  0
    3.7540   -7.2970    3.8880 C   0  0  0  0  0  3  0  0  0  0  0  0
    4.0510   -6.2610    3.0160 C   0  0  1  0  0  3  0  0  0  0  0  0
    4.6420   -6.7630    1.4580 Cl  0  0  0  0  0  0  0  0  0  0  0  0
  1 21  2  0  0  0  0
  2  1  1  0  0  0  0
  3  2  1  0  0  0  0
  5  6  1  0  0  0  0
  5  1  1  0  0  0  0
  6  7  1  0  0  0  0
  7  8  2  0  0  0  0
  8 15  1  0  0  0  0
  9 17  1  0  0  0  0
  9  8  1  0  0  0  0
 10  9  2  0  0  0  0
 11 10  1  0  0  0  0
 11  6  2  0  0  0  0
 12 13  1  0  0  0  0
 12 10  1  0  0  0  0
 14 12  2  0  0  0  0
 15 16  1  0  0  0  0
 18 17  1  0  0  0  0
 20 19  2  0  0  0  0
 21 22  1  0  0  0  0
 21 20  1  0  0  0  0
 23 20  1  0  0  0  0
 24 23  1  0  0  0  0
 25 24  1  1  0  0  0
 25 26  1  0  0  0  0
 26 28  1  0  0  0  0
 29 28  1  0  0  0  0
 30 29  2  0  0  0  0
 31 32  1  6  0  0  0
 31 25  1  0  0  0  0
 31 30  1  0  0  0  0
M  END
>  <minimizedAffinity>
-7.18654585

$$$$
