
 OpenBabel09132204463D

 32 31  0  0  1  0  0  0  0  0999 V2000
    8.4190   -3.2670    2.6450 C   0  0  0  0  0  0  0  0  0  0  0  0
    9.3330   -2.1980    4.0200 C   0  0  0  0  0  2  0  0  0  0  0  0
    8.4020   -2.0690    5.5060 C   0  0  0  0  0  1  0  0  0  0  0  0
    6.5410   -3.4250    5.5080 S   0  0  0  0  0 15  0  0  0  0  0  0
    6.9300   -4.0270    3.2780 C   0  0  0  0  0  2  0  0  0  0  0  0
    6.0560   -5.0600    2.7290 C   0  0  0  0  0  0  0  0  0  0  0  0
    5.1300   -5.6010    3.5300 N   0  0  0  0  0  0  0  0  0  0  0  0
    4.3890   -6.5440    2.9340 C   0  0  0  0  0  0  0  0  0  0  0  0
    4.5290   -6.9590    1.6250 C   0  0  0  0  0  0  0  0  0  0  0  0
    5.5160   -6.3340    0.8810 C   0  0  0  0  0  0  0  0  0  0  0  0
    6.2860   -5.3560    1.4400 N   0  0  0  0  0  0  0  0  0  0  0  0
    5.7390   -6.7640   -0.5640 C   0  0  0  0  0  0  0  0  0  0  0  0
    6.2520   -5.8710   -1.3260 O   0  0  0  0  0  0  0  0  0  0  0  0
    5.4020   -7.9370   -0.9070 O   0  0  0  0  0  1  0  0  0  0  0  0
    3.4190   -7.1270    3.7120 O   0  0  0  0  0  0  0  0  0  0  0  0
    3.0180   -7.7770    3.1020 H   0  0  0  0  0  0  0  0  0  0  0  0
    3.7020   -7.9440    1.1540 O   0  0  0  0  0  0  0  0  0  0  0  0
    3.9800   -8.0840    0.2020 H   0  0  0  0  0  0  0  0  0  0  0  0
   10.0690   -2.7990   -0.4560 O   0  0  0  0  0  0  0  0  0  0  0  0
    9.6980   -2.5990    0.6950 C   0  0  0  0  0  0  0  0  0  0  0  0
    8.8700   -3.4730    1.3550 N   0  0  0  0  0  4  0  0  0  0  0  0
    8.2580   -3.9880    0.7170 H   0  0  0  0  0  0  0  0  0  0  0  0
    9.9330   -1.3950    1.2920 O   0  0  0  0  0  0  0  0  0  0  0  0
    9.2960   -0.2300    0.7590 C   0  0  0  0  0  2  0  0  0  0  0  0
   10.2040    1.0470    0.9160 C   0  0  2  0  0  3  0  0  0  0  0  0
   10.2530    1.9900    2.1940 C   0  0  0  0  0  2  0  0  0  0  0  0
   10.2830    1.3520    4.6370 Cl  0  0  0  0  0 15  0  0  0  0  0  0
   10.1440    3.4000    1.5910 C   0  0  0  0  0  2  0  0  0  0  0  0
   10.4270    3.7890    0.2690 C   0  0  0  0  0  3  0  0  0  0  0  0
   10.8000    2.8520   -0.6640 C   0  0  0  0  0  3  0  0  0  0  0  0
   10.6640    1.5050   -0.3650 C   0  0  1  0  0  3  0  0  0  0  0  0
   11.0950    0.4220   -1.6590 Cl  0  0  0  0  0  0  0  0  0  0  0  0
  1  5  1  0  0  0  0
  1  2  1  0  0  0  0
  2  3  1  0  0  0  0
  6  5  1  0  0  0  0
  6  7  1  0  0  0  0
  8  7  2  0  0  0  0
  8 15  1  0  0  0  0
  9  8  1  0  0  0  0
 10 11  1  0  0  0  0
 10  9  2  0  0  0  0
 11  6  2  0  0  0  0
 12 10  1  0  0  0  0
 13 12  2  0  0  0  0
 14 12  1  0  0  0  0
 16 15  1  0  0  0  0
 17  9  1  0  0  0  0
 18 17  1  0  0  0  0
 19 20  2  0  0  0  0
 20 23  1  0  0  0  0
 20 21  1  0  0  0  0
 21  1  2  0  0  0  0
 22 21  1  0  0  0  0
 24 23  1  0  0  0  0
 25 24  1  6  0  0  0
 25 26  1  0  0  0  0
 28 26  1  0  0  0  0
 29 28  1  0  0  0  0
 30 31  1  0  0  0  0
 30 29  2  0  0  0  0
 31 32  1  1  0  0  0
 31 25  1  0  0  0  0
M  END
>  <minimizedAffinity>
-6.64899826

$$$$
