
 OpenBabel09132204463D

 32 31  0  0  1  0  0  0  0  0999 V2000
    8.1700   -3.6800    2.1320 C   0  0  0  0  0  0  0  0  0  0  0  0
    9.1580   -3.5400    0.4380 C   0  0  0  0  0  2  0  0  0  0  0  0
    8.5950   -4.6870   -0.7700 C   0  0  0  0  0  1  0  0  0  0  0  0
    6.6880   -5.7990   -0.1170 S   0  0  0  0  0 15  0  0  0  0  0  0
    6.7940   -4.8130    2.0050 C   0  0  0  0  0  2  0  0  0  0  0  0
    5.6650   -5.0760    2.8940 C   0  0  0  0  0  0  0  0  0  0  0  0
    5.3630   -6.3500    3.1770 N   0  0  0  0  0  0  0  0  0  0  0  0
    4.3080   -6.4820    3.9900 C   0  0  0  0  0  0  0  0  0  0  0  0
    3.5660   -5.4410    4.5110 C   0  0  0  0  0  0  0  0  0  0  0  0
    3.9640   -4.1620    4.1580 C   0  0  0  0  0  0  0  0  0  0  0  0
    5.0430   -3.9750    3.3440 N   0  0  0  0  0  0  0  0  0  0  0  0
    3.1710   -2.9700    4.6790 C   0  0  0  0  0  0  0  0  0  0  0  0
    3.7940   -2.2240    5.5140 O   0  0  0  0  0  1  0  0  0  0  0  0
    1.9810   -2.8070    4.2730 O   0  0  0  0  0  0  0  0  0  0  0  0
    3.9590   -7.7700    4.3170 O   0  0  0  0  0  0  0  0  0  0  0  0
    3.1790   -7.6420    4.8910 H   0  0  0  0  0  0  0  0  0  0  0  0
    2.5030   -5.7320    5.3250 O   0  0  0  0  0  0  0  0  0  0  0  0
    2.1180   -4.8420    5.5770 H   0  0  0  0  0  0  0  0  0  0  0  0
    9.1870   -1.0810    4.3170 O   0  0  0  0  0  0  0  0  0  0  0  0
    8.9390   -1.6850    3.2800 C   0  0  0  0  0  0  0  0  0  0  0  0
    8.4430   -2.9650    3.2840 N   0  0  0  0  0  4  0  0  0  0  0  0
    8.7330   -3.4930    4.1100 H   0  0  0  0  0  0  0  0  0  0  0  0
    9.3400   -1.1780    2.0780 O   0  0  0  0  0  0  0  0  0  0  0  0
    8.8100    0.0820    1.6550 C   0  0  0  0  0  2  0  0  0  0  0  0
    9.9420    1.1660    1.5090 C   0  0  2  0  0  3  0  0  0  0  0  0
   10.3090    2.2670    2.5940 C   0  0  0  0  0  2  0  0  0  0  0  0
   10.5090    2.0220    5.0990 Cl  0  0  0  0  0 15  0  0  0  0  0  0
   10.3830    3.5600    1.7660 C   0  0  0  0  0  2  0  0  0  0  0  0
   10.5750    3.6760    0.3770 C   0  0  0  0  0  3  0  0  0  0  0  0
   10.6620    2.5520   -0.4070 C   0  0  0  0  0  3  0  0  0  0  0  0
   10.3240    1.3200    0.1330 C   0  0  2  0  0  3  0  0  0  0  0  0
   10.4000   -0.0130   -0.9850 Cl  0  0  0  0  0  0  0  0  0  0  0  0
  1 21  2  0  0  0  0
  2  1  1  0  0  0  0
  3  2  1  0  0  0  0
  5  1  1  0  0  0  0
  5  6  1  0  0  0  0
  6  7  1  0  0  0  0
  6 11  2  0  0  0  0
  7  8  2  0  0  0  0
  8 15  1  0  0  0  0
  8  9  1  0  0  0  0
  9 17  1  0  0  0  0
 10  9  2  0  0  0  0
 10 12  1  0  0  0  0
 11 10  1  0  0  0  0
 12 13  1  0  0  0  0
 14 12  2  0  0  0  0
 15 16  1  0  0  0  0
 17 18  1  0  0  0  0
 20 21  1  0  0  0  0
 20 19  2  0  0  0  0
 21 22  1  0  0  0  0
 23 20  1  0  0  0  0
 24 23  1  0  0  0  0
 25 24  1  6  0  0  0
 25 26  1  0  0  0  0
 28 26  1  0  0  0  0
 29 28  1  0  0  0  0
 30 31  1  0  0  0  0
 30 29  2  0  0  0  0
 31 32  1  6  0  0  0
 31 25  1  0  0  0  0
M  END
>  <minimizedAffinity>
-7.33232021

$$$$
