
 OpenBabel09132204463D

 32 31  0  0  1  0  0  0  0  0999 V2000
    8.7340   -3.3860    2.2990 C   0  0  0  0  0  0  0  0  0  0  0  0
    8.0790   -3.6300    4.1370 C   0  0  0  0  0  2  0  0  0  0  0  0
    8.5690   -2.3250    5.2090 C   0  0  0  0  0  1  0  0  0  0  0  0
    9.5710   -0.5830    4.0860 S   0  0  0  0  0 15  0  0  0  0  0  0
    9.5230   -1.7960    2.0830 C   0  0  0  0  0  2  0  0  0  0  0  0
    9.9540   -1.0800    0.8860 C   0  0  0  0  0  0  0  0  0  0  0  0
   10.2990   -1.7930   -0.1930 N   0  0  0  0  0  0  0  0  0  0  0  0
   10.6880   -1.0430   -1.2310 C   0  0  0  0  0  0  0  0  0  0  0  0
   10.7510    0.3360   -1.2390 C   0  0  0  0  0  0  0  0  0  0  0  0
   10.3710    0.9780   -0.0730 C   0  0  0  0  0  0  0  0  0  0  0  0
    9.9510    0.2580    1.0070 N   0  0  0  0  0  0  0  0  0  0  0  0
   10.4420    2.4990   -0.0080 C   0  0  0  0  0  0  0  0  0  0  0  0
    9.5950    3.0520    0.7780 O   0  0  0  0  0  1  0  0  0  0  0  0
   11.3010    3.0990   -0.7230 O   0  0  0  0  0  0  0  0  0  0  0  0
   11.0480   -1.7280   -2.3660 O   0  0  0  0  0  0  0  0  0  0  0  0
   11.3040   -1.0090   -2.9780 H   0  0  0  0  0  0  0  0  0  0  0  0
   11.1800    0.9690   -2.3760 O   0  0  0  0  0  0  0  0  0  0  0  0
   11.1500    1.9460   -2.1560 H   0  0  0  0  0  0  0  0  0  0  0  0
    7.3860   -5.9240    0.2260 O   0  0  0  0  0  0  0  0  0  0  0  0
    7.4940   -5.1240    1.1480 C   0  0  0  0  0  0  0  0  0  0  0  0
    8.5750   -4.2860    1.2620 N   0  0  0  0  0  4  0  0  0  0  0  0
    9.4210   -4.6810    0.8460 H   0  0  0  0  0  0  0  0  0  0  0  0
    6.6360   -5.1790    2.2080 O   0  0  0  0  0  0  0  0  0  0  0  0
    5.2750   -4.7860    2.0090 C   0  0  0  0  0  2  0  0  0  0  0  0
    4.2740   -5.8810    2.5370 C   0  0  2  0  0  3  0  0  0  0  0  0
    3.6770   -5.9510    4.0080 C   0  0  0  0  0  2  0  0  0  0  0  0
    2.7930   -4.0770    5.4530 Cl  0  0  0  0  0 15  0  0  0  0  0  0
    3.8880   -7.4230    4.4000 C   0  0  0  0  0  2  0  0  0  0  0  0
    4.0850   -8.5170    3.5380 C   0  0  0  0  0  3  0  0  0  0  0  0
    4.1630   -8.3240    2.1800 C   0  0  0  0  0  3  0  0  0  0  0  0
    4.2870   -7.0360    1.6830 C   0  0  1  0  0  3  0  0  0  0  0  0
    4.4570   -6.9340   -0.0460 Cl  0  0  0  0  0  0  0  0  0  0  0  0
  1  2  1  0  0  0  0
  2  3  1  0  0  0  0
  5  1  1  0  0  0  0
  6 11  2  0  0  0  0
  6  5  1  0  0  0  0
  7  6  1  0  0  0  0
  8  7  2  0  0  0  0
  9  8  1  0  0  0  0
  9 10  2  0  0  0  0
 10 12  1  0  0  0  0
 10 11  1  0  0  0  0
 12 13  1  0  0  0  0
 14 12  2  0  0  0  0
 15  8  1  0  0  0  0
 16 15  1  0  0  0  0
 17 18  1  0  0  0  0
 17  9  1  0  0  0  0
 19 20  2  0  0  0  0
 20 21  1  0  0  0  0
 20 23  1  0  0  0  0
 21  1  2  0  0  0  0
 22 21  1  0  0  0  0
 24 23  1  0  0  0  0
 25 24  1  1  0  0  0
 25 26  1  0  0  0  0
 26 28  1  0  0  0  0
 29 28  1  0  0  0  0
 30 29  2  0  0  0  0
 31 32  1  6  0  0  0
 31 30  1  0  0  0  0
 31 25  1  0  0  0  0
M  END
>  <minimizedAffinity>
-6.40206099

$$$$
