
 OpenBabel09132204463D

 32 31  0  0  1  0  0  0  0  0999 V2000
    7.7500   -4.5490    1.4960 C   0  0  0  0  0  0  0  0  0  0  0  0
    8.4410   -4.3860   -0.3370 C   0  0  0  0  0  2  0  0  0  0  0  0
    7.5610   -5.3880   -1.4830 C   0  0  0  0  0  1  0  0  0  0  0  0
    5.6870   -6.3560   -0.5600 S   0  0  0  0  0 15  0  0  0  0  0  0
    6.2590   -5.5340    1.5580 C   0  0  0  0  0  2  0  0  0  0  0  0
    5.2790   -5.7500    2.6180 C   0  0  0  0  0  0  0  0  0  0  0  0
    5.2150   -6.9610    3.1880 N   0  0  0  0  0  0  0  0  0  0  0  0
    4.2780   -7.0570    4.1390 C   0  0  0  0  0  0  0  0  0  0  0  0
    3.4320   -6.0400    4.5310 C   0  0  0  0  0  0  0  0  0  0  0  0
    3.5820   -4.8260    3.8800 C   0  0  0  0  0  0  0  0  0  0  0  0
    4.5330   -4.6740    2.9140 N   0  0  0  0  0  0  0  0  0  0  0  0
    2.6610   -3.6690    4.2480 C   0  0  0  0  0  0  0  0  0  0  0  0
    3.1430   -2.5010    4.0410 O   0  0  0  0  0  0  0  0  0  0  0  0
    1.5180   -3.9320    4.7310 O   0  0  0  0  0  1  0  0  0  0  0  0
    4.1750   -8.2780    4.7590 O   0  0  0  0  0  0  0  0  0  0  0  0
    3.4430   -8.1360    5.3910 H   0  0  0  0  0  0  0  0  0  0  0  0
    2.5130   -6.2890    5.5160 O   0  0  0  0  0  0  0  0  0  0  0  0
    2.0150   -5.4280    5.6310 H   0  0  0  0  0  0  0  0  0  0  0  0
    9.6600   -2.4000    3.5680 O   0  0  0  0  0  0  0  0  0  0  0  0
    9.1840   -2.9050    2.5580 C   0  0  0  0  0  0  0  0  0  0  0  0
    8.2900   -3.9460    2.6170 N   0  0  0  0  0  4  0  0  0  0  0  0
    8.4190   -4.5250    3.4500 H   0  0  0  0  0  0  0  0  0  0  0  0
    9.6830   -2.5840    1.3290 O   0  0  0  0  0  0  0  0  0  0  0  0
    9.2100   -1.3970    0.6870 C   0  0  0  0  0  2  0  0  0  0  0  0
   10.3520   -0.6870   -0.1320 C   0  0  2  0  0  3  0  0  0  0  0  0
   10.5170    0.8830   -0.3130 C   0  0  0  0  0  2  0  0  0  0  0  0
   10.2560    2.7150    1.4060 Cl  0  0  0  0  0 15  0  0  0  0  0  0
   10.7440    1.0370   -1.8260 C   0  0  0  0  0  2  0  0  0  0  0  0
   11.1860    0.0520   -2.7290 C   0  0  0  0  0  3  0  0  0  0  0  0
   11.4130   -1.2320   -2.2970 C   0  0  0  0  0  3  0  0  0  0  0  0
   10.9790   -1.6110   -1.0360 C   0  0  1  0  0  3  0  0  0  0  0  0
   11.2550   -3.2840   -0.6410 Cl  0  0  0  0  0  0  0  0  0  0  0  0
  1  5  1  0  0  0  0
  1 21  2  0  0  0  0
  2  1  1  0  0  0  0
  3  2  1  0  0  0  0
  5  6  1  0  0  0  0
  6 11  2  0  0  0  0
  6  7  1  0  0  0  0
  7  8  2  0  0  0  0
  8  9  1  0  0  0  0
  8 15  1  0  0  0  0
  9 17  1  0  0  0  0
 10 12  1  0  0  0  0
 10  9  2  0  0  0  0
 11 10  1  0  0  0  0
 12 14  1  0  0  0  0
 13 12  2  0  0  0  0
 15 16  1  0  0  0  0
 17 18  1  0  0  0  0
 20 21  1  0  0  0  0
 20 19  2  0  0  0  0
 21 22  1  0  0  0  0
 23 20  1  0  0  0  0
 24 23  1  0  0  0  0
 25 24  1  6  0  0  0
 26 25  1  0  0  0  0
 28 26  1  0  0  0  0
 29 30  2  0  0  0  0
 29 28  1  0  0  0  0
 30 31  1  0  0  0  0
 31 32  1  1  0  0  0
 31 25  1  0  0  0  0
M  END
>  <minimizedAffinity>
-6.70237255

$$$$
