
 OpenBabel09132204463D

 32 31  0  0  1  0  0  0  0  0999 V2000
   10.0590    0.8690    0.6260 C   0  0  0  0  0  0  0  0  0  0  0  0
   10.7360    2.2240   -0.6270 C   0  0  0  0  0  2  0  0  0  0  0  0
   11.4290    1.5160   -2.0790 C   0  0  0  0  0  1  0  0  0  0  0  0
   11.0720   -0.7550   -2.2180 S   0  0  0  0  0 15  0  0  0  0  0  0
   10.1260   -0.7750   -0.0740 C   0  0  0  0  0  2  0  0  0  0  0  0
    9.5500   -2.0430    0.3630 C   0  0  0  0  0  0  0  0  0  0  0  0
    9.4070   -3.0210   -0.5400 N   0  0  0  0  0  0  0  0  0  0  0  0
    8.8600   -4.1360   -0.0410 C   0  0  0  0  0  0  0  0  0  0  0  0
    8.4610   -4.3120    1.2680 C   0  0  0  0  0  0  0  0  0  0  0  0
    8.6550   -3.2390    2.1220 C   0  0  0  0  0  0  0  0  0  0  0  0
    9.2230   -2.0870    1.6640 N   0  0  0  0  0  0  0  0  0  0  0  0
    8.2130   -3.3600    3.5750 C   0  0  0  0  0  0  0  0  0  0  0  0
    6.9780   -3.6550    3.7470 O   0  0  0  0  0  0  0  0  0  0  0  0
    9.0670   -3.1570    4.4900 O   0  0  0  0  0  1  0  0  0  0  0  0
    8.6970   -5.1730   -0.9270 O   0  0  0  0  0  0  0  0  0  0  0  0
    8.2810   -5.8640   -0.3740 H   0  0  0  0  0  0  0  0  0  0  0  0
    7.9070   -5.5110    1.6330 O   0  0  0  0  0  0  0  0  0  0  0  0
    7.6930   -5.4130    2.6070 H   0  0  0  0  0  0  0  0  0  0  0  0
    9.3970    2.4190    3.7440 O   0  0  0  0  0  0  0  0  0  0  0  0
    9.8630    2.2270    2.6270 C   0  0  0  0  0  0  0  0  0  0  0  0
    9.5360    1.1220    1.8810 N   0  0  0  0  0  4  0  0  0  0  0  0
    9.2900    0.3170    2.4620 H   0  0  0  0  0  0  0  0  0  0  0  0
   10.8850    3.0070    2.1670 O   0  0  0  0  0  0  0  0  0  0  0  0
   11.4290    4.0040    3.0360 C   0  0  0  0  0  2  0  0  0  0  0  0
   10.7770    5.4140    2.7770 C   0  0  2  0  0  3  0  0  0  0  0  0
   10.2570    5.9440    1.3730 C   0  0  0  0  0  2  0  0  0  0  0  0
    8.9350    4.7200   -0.3960 Cl  0  0  0  0  0 15  0  0  0  0  0  0
   10.8700    7.3520    1.2840 C   0  0  0  0  0  2  0  0  0  0  0  0
   11.3360    8.1500    2.3450 C   0  0  0  0  0  3  0  0  0  0  0  0
   11.3250    7.6680    3.6310 C   0  0  0  0  0  3  0  0  0  0  0  0
   11.0820    6.3200    3.8490 C   0  0  1  0  0  3  0  0  0  0  0  0
   11.1750    5.8210    5.5140 Cl  0  0  0  0  0  0  0  0  0  0  0  0
  1 21  2  0  0  0  0
  2  1  1  0  0  0  0
  3  2  1  0  0  0  0
  5  6  1  0  0  0  0
  5  1  1  0  0  0  0
  6 11  2  0  0  0  0
  7  8  2  0  0  0  0
  7  6  1  0  0  0  0
  8  9  1  0  0  0  0
  9 17  1  0  0  0  0
  9 10  2  0  0  0  0
 10 12  1  0  0  0  0
 11 10  1  0  0  0  0
 12 13  2  0  0  0  0
 12 14  1  0  0  0  0
 15 16  1  0  0  0  0
 15  8  1  0  0  0  0
 17 18  1  0  0  0  0
 20 19  2  0  0  0  0
 21 22  1  0  0  0  0
 21 20  1  0  0  0  0
 23 20  1  0  0  0  0
 23 24  1  0  0  0  0
 25 24  1  6  0  0  0
 25 31  1  0  0  0  0
 26 25  1  0  0  0  0
 28 26  1  0  0  0  0
 28 29  1  0  0  0  0
 29 30  2  0  0  0  0
 30 31  1  0  0  0  0
 31 32  1  1  0  0  0
M  END
>  <minimizedAffinity>
-6.92721844

$$$$
