
 OpenBabel09132204463D

 32 31  0  0  1  0  0  0  0  0999 V2000
    9.5560   -2.0990    1.5460 C   0  0  0  0  0  0  0  0  0  0  0  0
   10.0310   -3.4610    0.2110 C   0  0  0  0  0  2  0  0  0  0  0  0
   10.4910   -2.7610   -1.3350 C   0  0  0  0  0  1  0  0  0  0  0  0
   10.6890   -0.4690   -1.2480 S   0  0  0  0  0 15  0  0  0  0  0  0
    9.8810   -0.4450    0.9510 C   0  0  0  0  0  2  0  0  0  0  0  0
    9.9060    0.8460    1.6310 C   0  0  0  0  0  0  0  0  0  0  0  0
    9.8490    0.8620    2.9690 N   0  0  0  0  0  0  0  0  0  0  0  0
    9.8680    2.0930    3.4930 C   0  0  0  0  0  0  0  0  0  0  0  0
    9.9330    3.2670    2.7690 C   0  0  0  0  0  0  0  0  0  0  0  0
    9.9900    3.1400    1.3910 C   0  0  0  0  0  0  0  0  0  0  0  0
    9.9900    1.9060    0.8110 N   0  0  0  0  0  0  0  0  0  0  0  0
   10.0380    4.3990    0.5330 C   0  0  0  0  0  0  0  0  0  0  0  0
   11.1180    5.0820    0.6270 O   0  0  0  0  0  1  0  0  0  0  0  0
    9.0340    4.6830   -0.1870 O   0  0  0  0  0  0  0  0  0  0  0  0
    9.8180    2.1640    4.8630 O   0  0  0  0  0  0  0  0  0  0  0  0
    9.8280    3.1280    5.0280 H   0  0  0  0  0  0  0  0  0  0  0  0
    9.9350    4.4590    3.4450 O   0  0  0  0  0  0  0  0  0  0  0  0
    9.9820    5.1620    2.7320 H   0  0  0  0  0  0  0  0  0  0  0  0
    7.6580   -3.4380    4.2230 O   0  0  0  0  0  0  0  0  0  0  0  0
    8.0720   -3.2460    3.0850 C   0  0  0  0  0  0  0  0  0  0  0  0
    9.0800   -2.3520    2.8190 N   0  0  0  0  0  4  0  0  0  0  0  0
    9.1110   -1.5860    3.4960 H   0  0  0  0  0  0  0  0  0  0  0  0
    7.4050   -3.7680    2.0150 O   0  0  0  0  0  0  0  0  0  0  0  0
    7.3600   -5.1890    1.8630 C   0  0  0  0  0  2  0  0  0  0  0  0
    5.9940   -5.6610    1.2380 C   0  0  2  0  0  3  0  0  0  0  0  0
    4.7200   -6.1330    2.0620 C   0  0  0  0  0  2  0  0  0  0  0  0
    3.7150   -5.1260    4.1480 Cl  0  0  0  0  0 15  0  0  0  0  0  0
    4.3150   -7.4390    1.3580 C   0  0  0  0  0  2  0  0  0  0  0  0
    4.6520   -7.8480    0.0550 C   0  0  0  0  0  3  0  0  0  0  0  0
    5.4760   -7.0720   -0.7230 C   0  0  0  0  0  3  0  0  0  0  0  0
    6.1620   -6.0160   -0.1430 C   0  0  1  0  0  3  0  0  0  0  0  0
    7.2320   -5.1610   -1.2180 Cl  0  0  0  0  0  0  0  0  0  0  0  0
  1 21  2  0  0  0  0
  2  1  1  0  0  0  0
  3  2  1  0  0  0  0
  5  1  1  0  0  0  0
  5  6  1  0  0  0  0
  6  7  1  0  0  0  0
  7  8  2  0  0  0  0
  8 15  1  0  0  0  0
  9 17  1  0  0  0  0
  9  8  1  0  0  0  0
 10  9  2  0  0  0  0
 11 10  1  0  0  0  0
 11  6  2  0  0  0  0
 12 13  1  0  0  0  0
 12 10  1  0  0  0  0
 14 12  2  0  0  0  0
 15 16  1  0  0  0  0
 18 17  1  0  0  0  0
 20 19  2  0  0  0  0
 21 20  1  0  0  0  0
 21 22  1  0  0  0  0
 23 20  1  0  0  0  0
 24 23  1  0  0  0  0
 25 24  1  1  0  0  0
 25 26  1  0  0  0  0
 28 26  1  0  0  0  0
 29 28  1  0  0  0  0
 30 31  1  0  0  0  0
 30 29  2  0  0  0  0
 31 32  1  6  0  0  0
 31 25  1  0  0  0  0
M  END
>  <minimizedAffinity>
-7.28239775

$$$$
