
 OpenBabel09132204463D

 32 31  0  0  1  0  0  0  0  0999 V2000
    8.0860   -3.2550    2.2970 C   0  0  0  0  0  0  0  0  0  0  0  0
    8.2350   -4.8750    1.1920 C   0  0  0  0  0  2  0  0  0  0  0  0
    9.0410   -4.5760   -0.3410 C   0  0  0  0  0  1  0  0  0  0  0  0
    9.9420   -2.4620   -0.4740 S   0  0  0  0  0 15  0  0  0  0  0  0
    8.9730   -1.8790    1.5780 C   0  0  0  0  0  2  0  0  0  0  0  0
    9.3370   -0.5700    2.1130 C   0  0  0  0  0  0  0  0  0  0  0  0
    9.4480   -0.4340    3.4400 N   0  0  0  0  0  0  0  0  0  0  0  0
    9.7750    0.8050    3.8270 C   0  0  0  0  0  0  0  0  0  0  0  0
    9.9850    1.8750    2.9810 C   0  0  0  0  0  0  0  0  0  0  0  0
    9.8480    1.6270    1.6260 C   0  0  0  0  0  0  0  0  0  0  0  0
    9.5310    0.3770    1.1810 N   0  0  0  0  0  0  0  0  0  0  0  0
   10.0420    2.7730    0.6400 C   0  0  0  0  0  0  0  0  0  0  0  0
   11.0010    2.6180   -0.1950 O   0  0  0  0  0  0  0  0  0  0  0  0
    9.2720    3.7780    0.7160 O   0  0  0  0  0  1  0  0  0  0  0  0
    9.9070    0.9960    5.1810 O   0  0  0  0  0  0  0  0  0  0  0  0
   10.1290    1.9460    5.2420 H   0  0  0  0  0  0  0  0  0  0  0  0
   10.3070    3.0910    3.5250 O   0  0  0  0  0  0  0  0  0  0  0  0
   10.4070    3.7080    2.7410 H   0  0  0  0  0  0  0  0  0  0  0  0
    5.6160   -3.5730    4.8180 O   0  0  0  0  0  0  0  0  0  0  0  0
    6.1790   -3.6810    3.7350 C   0  0  0  0  0  0  0  0  0  0  0  0
    7.4320   -3.1660    3.5110 N   0  0  0  0  0  4  0  0  0  0  0  0
    7.6290   -2.3500    4.0950 H   0  0  0  0  0  0  0  0  0  0  0  0
    5.4940   -4.1420    2.6480 O   0  0  0  0  0  0  0  0  0  0  0  0
    4.2290   -4.7780    2.8550 C   0  0  0  0  0  2  0  0  0  0  0  0
    4.2980   -6.3180    2.5340 C   0  0  2  0  0  3  0  0  0  0  0  0
    4.1530   -7.4880    3.5990 C   0  0  0  0  0  2  0  0  0  0  0  0
    2.5210   -7.6960    5.5160 Cl  0  0  0  0  0 15  0  0  0  0  0  0
    5.3380   -8.4090    3.2670 C   0  0  0  0  0  2  0  0  0  0  0  0
    6.0530   -8.4800    2.0580 C   0  0  0  0  0  3  0  0  0  0  0  0
    5.7540   -7.6260    1.0250 C   0  0  0  0  0  3  0  0  0  0  0  0
    4.9180   -6.5440    1.2590 C   0  0  1  0  0  3  0  0  0  0  0  0
    4.6830   -5.4940   -0.1100 Cl  0  0  0  0  0  0  0  0  0  0  0  0
  1 21  2  0  0  0  0
  2  1  1  0  0  0  0
  3  2  1  0  0  0  0
  5  6  1  0  0  0  0
  5  1  1  0  0  0  0
  6  7  1  0  0  0  0
  7  8  2  0  0  0  0
  8 15  1  0  0  0  0
  9 17  1  0  0  0  0
  9  8  1  0  0  0  0
 10  9  2  0  0  0  0
 11 10  1  0  0  0  0
 11  6  2  0  0  0  0
 12 14  1  0  0  0  0
 12 10  1  0  0  0  0
 13 12  2  0  0  0  0
 15 16  1  0  0  0  0
 18 17  1  0  0  0  0
 20 19  2  0  0  0  0
 21 20  1  0  0  0  0
 21 22  1  0  0  0  0
 23 24  1  0  0  0  0
 23 20  1  0  0  0  0
 25 24  1  1  0  0  0
 25 26  1  0  0  0  0
 28 26  1  0  0  0  0
 29 28  1  0  0  0  0
 30 31  1  0  0  0  0
 30 29  2  0  0  0  0
 31 32  1  6  0  0  0
 31 25  1  0  0  0  0
M  END
>  <minimizedAffinity>
-7.49845171

$$$$
