
 OpenBabel09122222393D

 39 44  0  0  1  0  0  0  0  0999 V2000
    6.3100   -6.6070    0.3780 C   0  0  0  0  0  0  0  0  0  0  0  0
    6.1070   -5.7980   -0.7430 C   0  0  0  0  0  3  0  0  0  0  0  0
    7.1200   -4.9390   -1.1780 C   0  0  0  0  0  3  0  0  0  0  0  0
    8.3400   -4.8570   -0.4960 C   0  0  0  0  0  0  0  0  0  0  0  0
    8.5370   -5.6560    0.6260 C   0  0  0  0  0  3  0  0  0  0  0  0
    7.5300   -6.5260    1.0490 C   0  0  0  0  0  0  0  0  0  0  0  0
    7.7690   -7.2970    2.1210 F   0  0  0  0  0  0  0  0  0  0  0  0
    2.1940  -10.7240    1.7570 C   0  0  0  0  0  0  0  0  0  0  0  0
    1.9770   -9.9130    2.8830 C   0  0  0  0  0  3  0  0  0  0  0  0
    2.6910   -8.7270    3.1000 C   0  0  0  0  0  3  0  0  0  0  0  0
    3.6460   -8.3630    2.1430 C   0  0  0  0  0  0  0  0  0  0  0  0
    3.8910   -9.1430    1.0160 C   0  0  0  0  0  0  0  0  0  0  0  0
    3.1630  -10.3270    0.8160 C   0  0  0  0  0  3  0  0  0  0  0  0
    4.8800   -8.5890    0.2420 N   0  0  0  0  0  0  0  0  0  0  0  0
    5.2460   -7.4810    0.8540 C   0  0  0  0  0  0  0  0  0  0  0  0
    4.5170   -7.2980    2.0170 N   0  0  0  0  0  0  0  0  0  0  0  0
    4.6760   -6.1850    2.9500 C   0  0  0  0  0  3  0  0  0  0  0  0
    4.3110   -4.8240    2.3370 C   0  0  0  0  0  2  0  0  0  0  0  0
    4.5320   -3.6880    3.3360 C   0  0  0  0  0  2  0  0  0  0  0  0
    3.7960   -3.9390    4.6490 C   0  0  0  0  0  2  0  0  0  0  0  0
    4.1810   -5.2820    5.2630 C   0  0  0  0  0  2  0  0  0  0  0  0
    3.9560   -6.4330    4.2860 C   0  0  0  0  0  2  0  0  0  0  0  0
    0.6260  -12.3490    2.5090 O   0  0  0  0  0  1  0  0  0  0  0  0
    1.4020  -12.0010    1.5620 C   0  0  0  0  0  0  0  0  0  0  0  0
    1.5710  -12.6320    0.4720 O   0  0  0  0  0  0  0  0  0  0  0  0
    9.2050   -3.9420   -1.0190 O   0  0  0  0  0  0  0  0  0  0  0  0
   10.3530   -3.4280   -0.3140 C   0  0  1  0  0  3  0  0  0  0  0  0
   11.4740   -2.9280   -1.2150 C   0  0  0  0  0  0  0  0  0  0  0  0
   11.4550   -1.7040   -1.8930 C   0  0  0  0  0  3  0  0  0  0  0  0
   12.5250   -1.3360   -2.7060 C   0  0  0  0  0  3  0  0  0  0  0  0
   13.5900   -2.2100   -2.8300 C   0  0  0  0  0  3  0  0  0  0  0  0
   13.6480   -3.4050   -2.2120 N   0  0  0  0  0  0  0  0  0  0  0  0
   12.5940   -3.7360   -1.4290 C   0  0  0  0  0  3  0  0  0  0  0  0
   10.0190   -2.6340    0.9420 C   0  0  0  0  0  0  0  0  0  0  0  0
    9.2660   -1.4550    0.8400 C   0  0  0  0  0  3  0  0  0  0  0  0
    8.9470   -0.7240    1.9810 C   0  0  0  0  0  3  0  0  0  0  0  0
    9.3870   -1.1960    3.2030 C   0  0  0  0  0  3  0  0  0  0  0  0
   10.1090   -2.3260    3.3500 N   0  0  0  0  0  0  0  0  0  0  0  0
   10.4110   -3.0130    2.2240 C   0  0  0  0  0  3  0  0  0  0  0  0
  1 15  1  0  0  0  0
  1  6  1  0  0  0  0
  2  1  2  0  0  0  0
  3  2  1  0  0  0  0
  3  4  2  0  0  0  0
  4  5  1  0  0  0  0
  5  6  2  0  0  0  0
  6  7  1  0  0  0  0
  8  9  1  0  0  0  0
  9 10  2  0  0  0  0
 11 10  1  0  0  0  0
 12 11  2  0  0  0  0
 13 12  1  0  0  0  0
 13  8  2  0  0  0  0
 14 15  2  0  0  0  0
 14 12  1  0  0  0  0
 15 16  1  0  0  0  0
 16 11  1  0  0  0  0
 16 17  1  0  0  0  0
 17 22  1  0  0  0  0
 18 17  1  0  0  0  0
 18 19  1  0  0  0  0
 19 20  1  0  0  0  0
 20 21  1  0  0  0  0
 22 21  1  0  0  0  0
 24  8  1  0  0  0  0
 24 23  1  0  0  0  0
 25 24  2  0  0  0  0
 26  4  1  0  0  0  0
 27 26  1  6  0  0  0
 27 34  1  0  0  0  0
 28 27  1  0  0  0  0
 29 28  2  0  0  0  0
 30 29  1  0  0  0  0
 31 30  2  0  0  0  0
 31 32  1  0  0  0  0
 32 33  2  0  0  0  0
 33 28  1  0  0  0  0
 34 39  1  0  0  0  0
 35 34  2  0  0  0  0
 35 36  1  0  0  0  0
 36 37  2  0  0  0  0
 37 38  1  0  0  0  0
 39 38  2  0  0  0  0
M  END
>  <minimizedAffinity>
-10.4104519

$$$$
