
 OpenBabel09122222393D

 39 44  0  0  1  0  0  0  0  0999 V2000
    3.6350  -10.4850    1.7500 C   0  0  0  0  0  0  0  0  0  0  0  0
    4.9790  -10.1220    1.8720 C   0  0  0  0  0  3  0  0  0  0  0  0
    5.3360   -9.0200    2.6540 C   0  0  0  0  0  3  0  0  0  0  0  0
    4.3650   -8.2540    3.3100 C   0  0  0  0  0  0  0  0  0  0  0  0
    3.0270   -8.6110    3.1790 C   0  0  0  0  0  3  0  0  0  0  0  0
    2.6720   -9.7230    2.4110 C   0  0  0  0  0  0  0  0  0  0  0  0
    1.3730  -10.0470    2.3310 F   0  0  0  0  0  0  0  0  0  0  0  0
    2.1030  -14.5940   -2.3200 C   0  0  0  0  0  0  0  0  0  0  0  0
    2.3230  -15.5000   -1.2700 C   0  0  0  0  0  3  0  0  0  0  0  0
    2.7120  -15.0810    0.0100 C   0  0  0  0  0  3  0  0  0  0  0  0
    2.8780  -13.7070    0.2180 C   0  0  0  0  0  0  0  0  0  0  0  0
    2.6720  -12.7800   -0.8000 C   0  0  0  0  0  0  0  0  0  0  0  0
    2.2810  -13.2190   -2.0750 C   0  0  0  0  0  3  0  0  0  0  0  0
    2.9150  -11.5040   -0.3570 N   0  0  0  0  0  0  0  0  0  0  0  0
    3.2540  -11.6140    0.9110 C   0  0  0  0  0  0  0  0  0  0  0  0
    3.2410  -12.9410    1.3090 N   0  0  0  0  0  0  0  0  0  0  0  0
    3.5830  -13.4290    2.6430 C   0  0  0  0  0  3  0  0  0  0  0  0
    2.4140  -14.1310    3.3500 C   0  0  0  0  0  2  0  0  0  0  0  0
    2.8070  -14.5860    4.7550 C   0  0  0  0  0  2  0  0  0  0  0  0
    4.0650  -15.4490    4.7380 C   0  0  0  0  0  2  0  0  0  0  0  0
    5.2290  -14.7360    4.0550 C   0  0  0  0  0  2  0  0  0  0  0  0
    4.8610  -14.2830    2.6440 C   0  0  0  0  0  2  0  0  0  0  0  0
    0.9010  -16.0890   -3.7290 O   0  0  0  0  0  1  0  0  0  0  0  0
    1.6870  -15.0890   -3.6900 C   0  0  0  0  0  0  0  0  0  0  0  0
    2.1530  -14.4740   -4.7000 O   0  0  0  0  0  0  0  0  0  0  0  0
    4.8710   -7.1890    3.9950 O   0  0  0  0  0  0  0  0  0  0  0  0
    5.0130   -5.8680    3.4340 C   0  0  1  0  0  3  0  0  0  0  0  0
    5.4300   -5.8450    1.9700 C   0  0  0  0  0  0  0  0  0  0  0  0
    4.5450   -5.9840    0.8960 C   0  0  0  0  0  3  0  0  0  0  0  0
    5.0230   -5.9610   -0.4130 C   0  0  0  0  0  3  0  0  0  0  0  0
    6.3820   -5.8110   -0.6170 C   0  0  0  0  0  3  0  0  0  0  0  0
    7.2760   -5.6910    0.3840 N   0  0  0  0  0  0  0  0  0  0  0  0
    6.7830   -5.7160    1.6440 C   0  0  0  0  0  3  0  0  0  0  0  0
    3.9690   -4.8660    3.9090 C   0  0  0  0  0  0  0  0  0  0  0  0
    4.1100   -3.5080    3.5870 C   0  0  0  0  0  3  0  0  0  0  0  0
    3.1580   -2.5830    4.0090 C   0  0  0  0  0  3  0  0  0  0  0  0
    2.0810   -3.0440    4.7410 C   0  0  0  0  0  3  0  0  0  0  0  0
    1.9010   -4.3400    5.0700 N   0  0  0  0  0  0  0  0  0  0  0  0
    2.8450   -5.2160    4.6540 C   0  0  0  0  0  3  0  0  0  0  0  0
  1  2  2  0  0  0  0
  1  6  1  0  0  0  0
  2  3  1  0  0  0  0
  3  4  2  0  0  0  0
  4 26  1  0  0  0  0
  5  4  1  0  0  0  0
  6  5  2  0  0  0  0
  7  6  1  0  0  0  0
  8 13  2  0  0  0  0
  8  9  1  0  0  0  0
  9 10  2  0  0  0  0
 10 11  1  0  0  0  0
 11 16  1  0  0  0  0
 12 14  1  0  0  0  0
 12 11  2  0  0  0  0
 13 12  1  0  0  0  0
 14 15  2  0  0  0  0
 15 16  1  0  0  0  0
 15  1  1  0  0  0  0
 16 17  1  0  0  0  0
 17 22  1  0  0  0  0
 17 18  1  0  0  0  0
 18 19  1  0  0  0  0
 20 19  1  0  0  0  0
 21 20  1  0  0  0  0
 22 21  1  0  0  0  0
 23 24  1  0  0  0  0
 24  8  1  0  0  0  0
 25 24  2  0  0  0  0
 27 34  1  0  0  0  0
 27 26  1  6  0  0  0
 28 27  1  0  0  0  0
 29 28  2  0  0  0  0
 30 29  1  0  0  0  0
 31 30  2  0  0  0  0
 31 32  1  0  0  0  0
 32 33  2  0  0  0  0
 33 28  1  0  0  0  0
 34 39  1  0  0  0  0
 35 34  2  0  0  0  0
 35 36  1  0  0  0  0
 36 37  2  0  0  0  0
 37 38  1  0  0  0  0
 39 38  2  0  0  0  0
M  END
>  <minimizedAffinity>
-8.69595242

$$$$
