
 OpenBabel09122222393D

 39 44  0  0  1  0  0  0  0  0999 V2000
    9.3290   -2.4530    3.4550 C   0  0  0  0  0  0  0  0  0  0  0  0
   10.0000   -3.0100    4.5480 C   0  0  0  0  0  3  0  0  0  0  0  0
   10.6100   -2.1790    5.4910 C   0  0  0  0  0  3  0  0  0  0  0  0
   10.5790   -0.7860    5.3530 C   0  0  0  0  0  0  0  0  0  0  0  0
    9.9190   -0.2330    4.2600 C   0  0  0  0  0  3  0  0  0  0  0  0
    9.2950   -1.0650    3.3280 C   0  0  0  0  0  0  0  0  0  0  0  0
    8.6490   -0.4920    2.3010 F   0  0  0  0  0  0  0  0  0  0  0  0
    6.2000   -6.0790   -0.1300 C   0  0  0  0  0  0  0  0  0  0  0  0
    7.1460   -5.6960   -1.0950 C   0  0  0  0  0  3  0  0  0  0  0  0
    8.1960   -4.8150   -0.8040 C   0  0  0  0  0  3  0  0  0  0  0  0
    8.2800   -4.3170    0.5020 C   0  0  0  0  0  0  0  0  0  0  0  0
    7.3580   -4.6720    1.4840 C   0  0  0  0  0  0  0  0  0  0  0  0
    6.3140   -5.5570    1.1730 C   0  0  0  0  0  3  0  0  0  0  0  0
    7.6400   -4.0420    2.6700 N   0  0  0  0  0  0  0  0  0  0  0  0
    8.7170   -3.3170    2.4530 C   0  0  0  0  0  0  0  0  0  0  0  0
    9.1480   -3.4560    1.1440 N   0  0  0  0  0  0  0  0  0  0  0  0
   10.3010   -2.7790    0.5550 C   0  0  0  0  0  3  0  0  0  0  0  0
   11.3690   -3.7510    0.0260 C   0  0  0  0  0  2  0  0  0  0  0  0
   12.5710   -2.9980   -0.5410 C   0  0  0  0  0  2  0  0  0  0  0  0
   12.1530   -1.9790   -1.5970 C   0  0  0  0  0  2  0  0  0  0  0  0
   11.1110   -1.0040   -1.0570 C   0  0  0  0  0  2  0  0  0  0  0  0
    9.8930   -1.7340   -0.4960 C   0  0  0  0  0  2  0  0  0  0  0  0
    5.3820   -8.0470   -1.1910 O   0  0  0  0  0  0  0  0  0  0  0  0
    5.0770   -7.0320   -0.4880 C   0  0  0  0  0  0  0  0  0  0  0  0
    3.9130   -6.7470   -0.0640 O   0  0  0  0  0  1  0  0  0  0  0  0
   11.2560   -0.1190    6.3300 O   0  0  0  0  0  0  0  0  0  0  0  0
   10.6160    0.5780    7.4190 C   0  0  1  0  0  3  0  0  0  0  0  0
   10.5380    2.0880    7.2420 C   0  0  0  0  0  0  0  0  0  0  0  0
   10.1700    2.7250    6.0520 C   0  0  0  0  0  3  0  0  0  0  0  0
   10.1380    4.1160    5.9830 C   0  0  0  0  0  3  0  0  0  0  0  0
   10.4870    4.8410    7.1080 C   0  0  0  0  0  3  0  0  0  0  0  0
   10.8640    4.2750    8.2710 N   0  0  0  0  0  0  0  0  0  0  0  0
   10.8860    2.9220    8.3080 C   0  0  0  0  0  3  0  0  0  0  0  0
    9.4160   -0.1480    8.0140 C   0  0  0  0  0  0  0  0  0  0  0  0
    8.1190    0.3030    7.7320 C   0  0  0  0  0  3  0  0  0  0  0  0
    7.0140   -0.3560    8.2630 C   0  0  0  0  0  3  0  0  0  0  0  0
    7.2360   -1.4610    9.0630 C   0  0  0  0  0  3  0  0  0  0  0  0
    8.4640   -1.9340    9.3580 N   0  0  0  0  0  0  0  0  0  0  0  0
    9.5210   -1.2700    8.8340 C   0  0  0  0  0  3  0  0  0  0  0  0
  1  2  1  0  0  0  0
  2  3  2  0  0  0  0
  4  3  1  0  0  0  0
  4 26  1  0  0  0  0
  5  4  2  0  0  0  0
  6  1  2  0  0  0  0
  6  5  1  0  0  0  0
  7  6  1  0  0  0  0
  8 13  1  0  0  0  0
  9 10  1  0  0  0  0
  9  8  2  0  0  0  0
 10 11  2  0  0  0  0
 11 16  1  0  0  0  0
 11 12  1  0  0  0  0
 12 14  1  0  0  0  0
 13 12  2  0  0  0  0
 15 14  2  0  0  0  0
 15  1  1  0  0  0  0
 16 15  1  0  0  0  0
 17 16  1  0  0  0  0
 18 17  1  0  0  0  0
 19 18  1  0  0  0  0
 20 21  1  0  0  0  0
 20 19  1  0  0  0  0
 21 22  1  0  0  0  0
 22 17  1  0  0  0  0
 23 24  2  0  0  0  0
 24  8  1  0  0  0  0
 24 25  1  0  0  0  0
 27 26  1  6  0  0  0
 27 34  1  0  0  0  0
 28 27  1  0  0  0  0
 28 33  1  0  0  0  0
 29 28  2  0  0  0  0
 30 29  1  0  0  0  0
 30 31  2  0  0  0  0
 31 32  1  0  0  0  0
 32 33  2  0  0  0  0
 34 39  1  0  0  0  0
 35 34  2  0  0  0  0
 35 36  1  0  0  0  0
 36 37  2  0  0  0  0
 37 38  1  0  0  0  0
 39 38  2  0  0  0  0
M  END
>  <minimizedAffinity>
-8.91872883

$$$$
