
 OpenBabel09122222393D

 39 44  0  0  1  0  0  0  0  0999 V2000
    6.0980   -6.6930    0.7360 C   0  0  0  0  0  0  0  0  0  0  0  0
    7.3760   -6.7610    1.2970 C   0  0  0  0  0  3  0  0  0  0  0  0
    8.4140   -5.9880    0.7680 C   0  0  0  0  0  3  0  0  0  0  0  0
    8.2020   -5.1530   -0.3350 C   0  0  0  0  0  0  0  0  0  0  0  0
    6.9320   -5.0930   -0.8980 C   0  0  0  0  0  3  0  0  0  0  0  0
    5.8920   -5.8530   -0.3580 C   0  0  0  0  0  0  0  0  0  0  0  0
    4.6760   -5.7480   -0.9160 F   0  0  0  0  0  0  0  0  0  0  0  0
    1.8970  -10.6370    2.3420 C   0  0  0  0  0  0  0  0  0  0  0  0
    1.7320   -9.7860    3.4470 C   0  0  0  0  0  3  0  0  0  0  0  0
    2.4860   -8.6160    3.6090 C   0  0  0  0  0  3  0  0  0  0  0  0
    3.4270   -8.3110    2.6190 C   0  0  0  0  0  0  0  0  0  0  0  0
    3.6210   -9.1330    1.5110 C   0  0  0  0  0  0  0  0  0  0  0  0
    2.8540  -10.3000    1.3660 C   0  0  0  0  0  3  0  0  0  0  0  0
    4.6070   -8.6330    0.6970 N   0  0  0  0  0  0  0  0  0  0  0  0
    5.0210   -7.5190    1.2640 C   0  0  0  0  0  0  0  0  0  0  0  0
    4.3260   -7.2780    2.4380 N   0  0  0  0  0  0  0  0  0  0  0  0
    4.5410   -6.1410    3.3310 C   0  0  0  0  0  3  0  0  0  0  0  0
    4.1910   -4.7900    2.6880 C   0  0  0  0  0  2  0  0  0  0  0  0
    4.4710   -3.6310    3.6430 C   0  0  0  0  0  2  0  0  0  0  0  0
    3.7700   -3.8240    4.9850 C   0  0  0  0  0  2  0  0  0  0  0  0
    4.1400   -5.1560    5.6290 C   0  0  0  0  0  2  0  0  0  0  0  0
    3.8570   -6.3310    4.6950 C   0  0  0  0  0  2  0  0  0  0  0  0
    0.0350  -11.9890    2.9510 O   0  0  0  0  0  1  0  0  0  0  0  0
    1.0630  -11.8950    2.2080 C   0  0  0  0  0  0  0  0  0  0  0  0
    1.4510  -12.7650    1.3660 O   0  0  0  0  0  0  0  0  0  0  0  0
    9.3230   -4.5000   -0.7570 O   0  0  0  0  0  0  0  0  0  0  0  0
    9.6730   -3.1610   -0.3520 C   0  0  1  0  0  3  0  0  0  0  0  0
    9.6400   -2.9280    1.1520 C   0  0  0  0  0  0  0  0  0  0  0  0
    8.4870   -2.6070    1.8760 C   0  0  0  0  0  3  0  0  0  0  0  0
    8.5580   -2.4010    3.2530 C   0  0  0  0  0  3  0  0  0  0  0  0
    9.7890   -2.5110    3.8740 C   0  0  0  0  0  3  0  0  0  0  0  0
   10.9300   -2.8010    3.2180 N   0  0  0  0  0  0  0  0  0  0  0  0
   10.8300   -2.9960    1.8830 C   0  0  0  0  0  3  0  0  0  0  0  0
   10.7980   -2.5310   -1.1620 C   0  0  0  0  0  0  0  0  0  0  0  0
   10.7620   -1.1600   -1.4540 C   0  0  0  0  0  3  0  0  0  0  0  0
   11.7890   -0.5700   -2.1870 C   0  0  0  0  0  3  0  0  0  0  0  0
   12.8350   -1.3710   -2.6060 C   0  0  0  0  0  3  0  0  0  0  0  0
   12.9150   -2.6920   -2.3440 N   0  0  0  0  0  0  0  0  0  0  0  0
   11.8990   -3.2410   -1.6360 C   0  0  0  0  0  3  0  0  0  0  0  0
  1 15  1  0  0  0  0
  1  2  1  0  0  0  0
  3  2  2  0  0  0  0
  4  3  1  0  0  0  0
  5  6  1  0  0  0  0
  5  4  2  0  0  0  0
  6  1  2  0  0  0  0
  7  6  1  0  0  0  0
  8  9  1  0  0  0  0
  9 10  2  0  0  0  0
 11 10  1  0  0  0  0
 12 11  2  0  0  0  0
 13 12  1  0  0  0  0
 13  8  2  0  0  0  0
 14 15  2  0  0  0  0
 14 12  1  0  0  0  0
 15 16  1  0  0  0  0
 16 11  1  0  0  0  0
 16 17  1  0  0  0  0
 17 22  1  0  0  0  0
 18 17  1  0  0  0  0
 18 19  1  0  0  0  0
 19 20  1  0  0  0  0
 20 21  1  0  0  0  0
 22 21  1  0  0  0  0
 24  8  1  0  0  0  0
 24 23  1  0  0  0  0
 25 24  2  0  0  0  0
 26  4  1  0  0  0  0
 27 26  1  1  0  0  0
 27 28  1  0  0  0  0
 28 29  2  0  0  0  0
 28 33  1  0  0  0  0
 29 30  1  0  0  0  0
 30 31  2  0  0  0  0
 32 31  1  0  0  0  0
 33 32  2  0  0  0  0
 34 27  1  0  0  0  0
 35 34  1  0  0  0  0
 36 35  2  0  0  0  0
 37 38  2  0  0  0  0
 37 36  1  0  0  0  0
 38 39  1  0  0  0  0
 39 34  2  0  0  0  0
M  END
>  <minimizedAffinity>
-9.89851952

$$$$
