
 OpenBabel09132200053D

 29 32  0  0  0  0  0  0  0  0999 V2000
    8.8810    8.3410   -2.5160 N   0  0  0  0  0  0  0  0  0  0  0  0
    8.9100    9.5780   -1.9000 C   0  0  0  0  0  0  0  0  0  0  0  0
    9.0270    9.3830   -0.5250 C   0  0  0  0  0  0  0  0  0  0  0  0
    9.0590    7.9660   -0.3300 C   0  0  0  0  0  0  0  0  0  0  0  0
    9.1620    6.8140    0.9620 S   0  0  0  0  0  0  0  0  0  0  0  0
    9.1040    5.5200   -0.1680 C   0  0  0  0  0  0  0  0  0  0  0  0
    9.0360    5.9450   -1.4840 C   0  0  0  0  0  3  0  0  0  0  0  0
    8.9890    7.3640   -1.5480 C   0  0  0  0  0  0  0  0  0  0  0  0
    8.8220   10.8310   -2.6480 C   0  0  0  0  0  0  0  0  0  0  0  0
    8.5130   12.0250   -1.9880 C   0  0  0  0  0  3  0  0  0  0  0  0
    8.4220   13.2210   -2.7020 C   0  0  0  0  0  3  0  0  0  0  0  0
    8.6400   13.2290   -4.0780 C   0  0  0  0  0  3  0  0  0  0  0  0
    8.9470   12.0420   -4.7430 C   0  0  0  0  0  3  0  0  0  0  0  0
    9.0380   10.8450   -4.0310 C   0  0  0  0  0  3  0  0  0  0  0  0
    9.1140   10.3360    0.6330 C   0  0  0  0  0  3  0  0  0  0  0  0
    8.1140   11.5000    0.5430 C   0  0  0  0  0  2  0  0  0  0  0  0
    8.2880   12.4750    1.7060 C   0  0  0  0  0  2  0  0  0  0  0  0
    8.1800   11.7630    3.0520 C   0  0  0  0  0  2  0  0  0  0  0  0
    9.1590   10.5960    3.1530 C   0  0  0  0  0  2  0  0  0  0  0  0
    8.9980    9.6200    1.9880 C   0  0  0  0  0  2  0  0  0  0  0  0
    9.1230    4.0750    0.2090 C   0  0  0  0  0  0  0  0  0  0  0  0
    9.1280    3.8210    1.4550 O   0  0  0  0  0  1  0  0  0  0  0  0
    9.1410    3.2200   -0.7300 O   0  0  0  0  0  0  0  0  0  0  0  0
    8.8200    8.0300   -3.9390 C   0  0  0  0  0  2  0  0  0  0  0  0
    5.7480    8.6470   -6.1670 C   0  0  0  0  0  1  0  0  0  0  0  0
    7.0160    8.8490   -5.4900 N   0  0  0  0  0  0  0  0  0  0  0  0
    7.8100    9.9830   -5.9370 C   0  0  0  0  0  1  0  0  0  0  0  0
    7.4200    7.9320   -4.5250 C   0  0  0  0  0  0  0  0  0  0  0  0
    6.6410    7.0770   -4.0870 O   0  0  0  0  0  0  0  0  0  0  0  0
  1  2  1  0  0  0  0
  1  8  1  0  0  0  0
  2  3  2  0  0  0  0
  3  4  1  0  0  0  0
  3 15  1  0  0  0  0
  4  5  1  0  0  0  0
  6 21  1  0  0  0  0
  6  5  1  0  0  0  0
  7  6  2  0  0  0  0
  8  7  1  0  0  0  0
  8  4  2  0  0  0  0
  9 10  1  0  0  0  0
  9  2  1  0  0  0  0
 11 10  2  0  0  0  0
 12 11  1  0  0  0  0
 13 12  2  0  0  0  0
 13 14  1  0  0  0  0
 14  9  2  0  0  0  0
 15 20  1  0  0  0  0
 16 15  1  0  0  0  0
 16 17  1  0  0  0  0
 17 18  1  0  0  0  0
 18 19  1  0  0  0  0
 20 19  1  0  0  0  0
 21 22  1  0  0  0  0
 23 21  2  0  0  0  0
 24  1  1  0  0  0  0
 25 26  1  0  0  0  0
 26 28  1  0  0  0  0
 27 26  1  0  0  0  0
 28 29  2  0  0  0  0
 28 24  1  0  0  0  0
M  END
>  <minimizedAffinity>
5.73682594

$$$$
