
 OpenBabel09132204463D

 21 22  0  0  0  0  0  0  0  0999 V2000
    7.9240   -4.1660    1.7550 C   0  0  0  0  0  0  0  0  0  0  0  0
    7.1850   -5.2790    1.2390 C   0  0  0  0  0  3  0  0  0  0  0  0
    7.5420   -5.5920   -0.0510 C   0  0  0  0  0  3  0  0  0  0  0  0
    8.7590   -4.5540   -0.6490 S   0  0  0  0  0  0  0  0  0  0  0  0
    8.8450   -3.6820    0.8340 C   0  0  0  0  0  0  0  0  0  0  0  0
    8.8250   -3.0220    3.6490 C   0  0  0  0  0  2  0  0  0  0  0  0
    7.7530   -3.6320    3.0950 C   0  0  0  0  0  0  0  0  0  0  0  0
    6.5710   -3.8450    3.4860 O   0  0  0  0  0  0  0  0  0  0  0  0
    8.9860   -2.3470    4.9830 C   0  0  0  0  0  0  0  0  0  0  0  0
    8.3820   -2.6250    6.0160 O   0  0  0  0  0  0  0  0  0  0  0  0
   11.1490   -1.4480    5.6850 O   0  0  0  0  0  1  0  0  0  0  0  0
   10.0450   -1.2070    5.0880 C   0  0  0  0  0  0  0  0  0  0  0  0
    9.7410   -0.0850    4.5460 O   0  0  0  0  0  0  0  0  0  0  0  0
    9.7860   -2.5190    0.9820 C   0  0  0  0  0  2  0  0  0  0  0  0
   10.7260   -2.3320   -0.1960 C   0  0  0  0  0  0  0  0  0  0  0  0
   11.8470   -3.1620   -0.3610 C   0  0  0  0  0  3  0  0  0  0  0  0
   12.7120   -2.9730   -1.4400 C   0  0  0  0  0  3  0  0  0  0  0  0
   12.4610   -1.9540   -2.3530 C   0  0  0  0  0  0  0  0  0  0  0  0
   13.2980   -1.7790   -3.3850 F   0  0  0  0  0  0  0  0  0  0  0  0
   11.3610   -1.1200   -2.2060 C   0  0  0  0  0  3  0  0  0  0  0  0
   10.4940   -1.3090   -1.1300 C   0  0  0  0  0  3  0  0  0  0  0  0
  1  7  1  0  0  0  0
  2  1  1  0  0  0  0
  3  2  2  0  0  0  0
  4  3  1  0  0  0  0
  4  5  1  0  0  0  0
  5 14  1  0  0  0  0
  5  1  2  0  0  0  0
  6  9  1  0  0  0  0
  7  8  2  0  0  0  0
  7  6  1  0  0  0  0
  9 12  1  0  0  0  0
  9 10  2  0  0  0  0
 12 11  1  0  0  0  0
 13 12  2  0  0  0  0
 15 14  1  0  0  0  0
 16 15  1  0  0  0  0
 17 16  2  0  0  0  0
 18 20  2  0  0  0  0
 18 17  1  0  0  0  0
 19 18  1  0  0  0  0
 20 21  1  0  0  0  0
 21 15  2  0  0  0  0
M  END
>  <minimizedAffinity>
-5.39238167

$$$$
