
 OpenBabel09132204463D

 21 22  0  0  0  0  0  0  0  0999 V2000
   10.7380    4.8230    1.3900 C   0  0  0  0  0  0  0  0  0  0  0  0
   10.7380    4.8800    2.8210 C   0  0  0  0  0  3  0  0  0  0  0  0
   11.7620    4.1470    3.3750 C   0  0  0  0  0  3  0  0  0  0  0  0
   12.7210    3.3880    2.1830 S   0  0  0  0  0  0  0  0  0  0  0  0
   11.7890    4.0580    0.9010 C   0  0  0  0  0  0  0  0  0  0  0  0
    9.8560    6.8650    0.5160 C   0  0  0  0  0  2  0  0  0  0  0  0
    9.7720    5.5150    0.5540 C   0  0  0  0  0  0  0  0  0  0  0  0
    9.0210    4.6710   -0.0090 O   0  0  0  0  0  0  0  0  0  0  0  0
    9.0490    7.8740   -0.2520 C   0  0  0  0  0  0  0  0  0  0  0  0
    8.5330    7.7050   -1.3550 O   0  0  0  0  0  0  0  0  0  0  0  0
    7.6180    9.7350    0.4340 O   0  0  0  0  0  0  0  0  0  0  0  0
    8.8050    9.2600    0.4190 C   0  0  0  0  0  0  0  0  0  0  0  0
    9.8260    9.8390    0.9360 O   0  0  0  0  0  1  0  0  0  0  0  0
   12.1190    3.7380   -0.5310 C   0  0  0  0  0  2  0  0  0  0  0  0
   11.6680    2.3570   -0.9740 C   0  0  0  0  0  0  0  0  0  0  0  0
   10.6900    1.6540   -0.2520 C   0  0  0  0  0  3  0  0  0  0  0  0
   10.2920    0.3800   -0.6600 C   0  0  0  0  0  3  0  0  0  0  0  0
   10.8730   -0.1940   -1.7860 C   0  0  0  0  0  0  0  0  0  0  0  0
   10.4860   -1.4190   -2.1700 F   0  0  0  0  0  0  0  0  0  0  0  0
   11.8450    0.4820   -2.5110 C   0  0  0  0  0  3  0  0  0  0  0  0
   12.2410    1.7560   -2.1060 C   0  0  0  0  0  3  0  0  0  0  0  0
  1  2  1  0  0  0  0
  2  3  2  0  0  0  0
  4  3  1  0  0  0  0
  5  1  2  0  0  0  0
  5  4  1  0  0  0  0
  6  7  1  0  0  0  0
  7  1  1  0  0  0  0
  8  7  2  0  0  0  0
  9 12  1  0  0  0  0
  9  6  1  0  0  0  0
 10  9  2  0  0  0  0
 12 11  2  0  0  0  0
 12 13  1  0  0  0  0
 14  5  1  0  0  0  0
 15 14  1  0  0  0  0
 15 16  1  0  0  0  0
 17 16  2  0  0  0  0
 18 17  1  0  0  0  0
 19 18  1  0  0  0  0
 20 21  1  0  0  0  0
 20 18  2  0  0  0  0
 21 15  2  0  0  0  0
M  END
>  <minimizedAffinity>
-5.69527817

$$$$
