
 OpenBabel09132204463D

 21 22  0  0  0  0  0  0  0  0999 V2000
    9.2050   -3.1250    1.9240 C   0  0  0  0  0  0  0  0  0  0  0  0
    7.8940   -3.6780    2.0870 C   0  0  0  0  0  3  0  0  0  0  0  0
    7.5830   -4.5870    1.1030 C   0  0  0  0  0  3  0  0  0  0  0  0
    8.8580   -4.7780   -0.0170 S   0  0  0  0  0  0  0  0  0  0  0  0
    9.8610   -3.6590    0.8220 C   0  0  0  0  0  0  0  0  0  0  0  0
    9.3680   -0.8700    2.6980 C   0  0  0  0  0  2  0  0  0  0  0  0
    9.7890   -2.1490    2.8280 C   0  0  0  0  0  0  0  0  0  0  0  0
   10.6020   -2.7250    3.6030 O   0  0  0  0  0  0  0  0  0  0  0  0
    9.7350    0.3650    3.4720 C   0  0  0  0  0  0  0  0  0  0  0  0
    9.9380    0.4310    4.6820 O   0  0  0  0  0  0  0  0  0  0  0  0
   10.7550    2.5560    3.0930 O   0  0  0  0  0  1  0  0  0  0  0  0
    9.9150    1.6890    2.6690 C   0  0  0  0  0  0  0  0  0  0  0  0
    9.2080    1.8220    1.6070 O   0  0  0  0  0  0  0  0  0  0  0  0
   11.2310   -3.3240    0.3020 C   0  0  0  0  0  2  0  0  0  0  0  0
   11.2450   -2.2130   -0.7330 C   0  0  0  0  0  0  0  0  0  0  0  0
   12.1470   -2.2440   -1.8090 C   0  0  0  0  0  3  0  0  0  0  0  0
   12.1600   -1.2100   -2.7470 C   0  0  0  0  0  3  0  0  0  0  0  0
   11.2770   -0.1440   -2.6090 C   0  0  0  0  0  0  0  0  0  0  0  0
   11.2990    0.8450   -3.5140 F   0  0  0  0  0  0  0  0  0  0  0  0
   10.3810   -0.0920   -1.5500 C   0  0  0  0  0  3  0  0  0  0  0  0
   10.3650   -1.1250   -0.6130 C   0  0  0  0  0  3  0  0  0  0  0  0
  1  2  1  0  0  0  0
  1  7  1  0  0  0  0
  3  2  2  0  0  0  0
  4  5  1  0  0  0  0
  4  3  1  0  0  0  0
  5  1  2  0  0  0  0
  6  7  1  0  0  0  0
  6  9  1  0  0  0  0
  7  8  2  0  0  0  0
  9 10  2  0  0  0  0
 12 11  1  0  0  0  0
 12  9  1  0  0  0  0
 13 12  2  0  0  0  0
 14  5  1  0  0  0  0
 15 21  1  0  0  0  0
 15 14  1  0  0  0  0
 16 15  2  0  0  0  0
 17 18  2  0  0  0  0
 17 16  1  0  0  0  0
 18 20  1  0  0  0  0
 19 18  1  0  0  0  0
 20 21  2  0  0  0  0
M  END
>  <minimizedAffinity>
-5.54590082

$$$$
