
 OpenBabel09132204463D

 21 22  0  0  0  0  0  0  0  0999 V2000
   11.3590    2.8840    1.4210 C   0  0  0  0  0  0  0  0  0  0  0  0
   12.3790    3.4790    2.2330 C   0  0  0  0  0  3  0  0  0  0  0  0
   12.1380    3.3190    3.5770 C   0  0  0  0  0  3  0  0  0  0  0  0
   10.6910    2.4610    3.8700 S   0  0  0  0  0  0  0  0  0  0  0  0
   10.3800    2.2660    2.1880 C   0  0  0  0  0  0  0  0  0  0  0  0
   12.0590    1.9060   -0.6440 C   0  0  0  0  0  2  0  0  0  0  0  0
   11.3720    2.8980   -0.0310 C   0  0  0  0  0  0  0  0  0  0  0  0
   10.6910    3.8750   -0.4500 O   0  0  0  0  0  0  0  0  0  0  0  0
   12.2510    1.6060   -2.1040 C   0  0  0  0  0  0  0  0  0  0  0  0
   12.6230    2.4000   -2.9660 O   0  0  0  0  0  0  0  0  0  0  0  0
   12.8760   -0.7480   -2.3230 O   0  0  0  0  0  1  0  0  0  0  0  0
   11.9950    0.1430   -2.5770 C   0  0  0  0  0  0  0  0  0  0  0  0
   10.8910   -0.0810   -3.1890 O   0  0  0  0  0  0  0  0  0  0  0  0
    9.1410    1.5550    1.7190 C   0  0  0  0  0  2  0  0  0  0  0  0
    9.3390    0.0710    1.4650 C   0  0  0  0  0  0  0  0  0  0  0  0
    9.1760   -0.8630    2.5010 C   0  0  0  0  0  3  0  0  0  0  0  0
    9.3740   -2.2240    2.2610 C   0  0  0  0  0  3  0  0  0  0  0  0
    9.7370   -2.6520    0.9880 C   0  0  0  0  0  0  0  0  0  0  0  0
    9.9260   -3.9610    0.7670 F   0  0  0  0  0  0  0  0  0  0  0  0
    9.9070   -1.7440   -0.0490 C   0  0  0  0  0  3  0  0  0  0  0  0
    9.7080   -0.3850    0.1890 C   0  0  0  0  0  3  0  0  0  0  0  0
  1  5  2  0  0  0  0
  1  2  1  0  0  0  0
  2  3  2  0  0  0  0
  3  4  1  0  0  0  0
  5  4  1  0  0  0  0
  6  7  1  0  0  0  0
  7  1  1  0  0  0  0
  8  7  2  0  0  0  0
  9  6  1  0  0  0  0
 10  9  2  0  0  0  0
 12 11  1  0  0  0  0
 12  9  1  0  0  0  0
 13 12  2  0  0  0  0
 14  5  1  0  0  0  0
 15 14  1  0  0  0  0
 15 16  1  0  0  0  0
 17 16  2  0  0  0  0
 18 17  1  0  0  0  0
 19 18  1  0  0  0  0
 20 21  1  0  0  0  0
 20 18  2  0  0  0  0
 21 15  2  0  0  0  0
M  END
>  <minimizedAffinity>
-5.7164464

$$$$
