
 OpenBabel09132204463D

 21 22  0  0  0  0  0  0  0  0999 V2000
    9.9270   -2.2700    2.1450 C   0  0  0  0  0  0  0  0  0  0  0  0
   10.4560   -3.0310    3.2360 C   0  0  0  0  0  3  0  0  0  0  0  0
   10.2870   -2.4000    4.4460 C   0  0  0  0  0  3  0  0  0  0  0  0
    9.4980   -0.8950    4.2780 S   0  0  0  0  0  0  0  0  0  0  0  0
    9.3460   -1.0830    2.5730 C   0  0  0  0  0  0  0  0  0  0  0  0
   11.0700   -2.3890    0.0500 C   0  0  0  0  0  2  0  0  0  0  0  0
    9.9640   -2.7080    0.7600 C   0  0  0  0  0  0  0  0  0  0  0  0
    8.9070   -3.3440    0.4910 O   0  0  0  0  0  0  0  0  0  0  0  0
   11.4440   -2.7030   -1.3720 C   0  0  0  0  0  0  0  0  0  0  0  0
   11.5500   -3.8230   -1.8650 O   0  0  0  0  0  0  0  0  0  0  0  0
   12.8900   -1.1380   -2.5730 O   0  0  0  0  0  1  0  0  0  0  0  0
   11.6870   -1.4990   -2.3330 C   0  0  0  0  0  0  0  0  0  0  0  0
   10.6470   -0.9480   -2.8430 O   0  0  0  0  0  0  0  0  0  0  0  0
    8.7060   -0.0060    1.7410 C   0  0  0  0  0  2  0  0  0  0  0  0
    9.6730    1.0650    1.2690 C   0  0  0  0  0  0  0  0  0  0  0  0
   10.0980    2.0840    2.1380 C   0  0  0  0  0  3  0  0  0  0  0  0
   10.9760    3.0710    1.6890 C   0  0  0  0  0  3  0  0  0  0  0  0
   11.4280    3.0450    0.3740 C   0  0  0  0  0  0  0  0  0  0  0  0
   12.2700    3.9990   -0.0480 F   0  0  0  0  0  0  0  0  0  0  0  0
   11.0160    2.0500   -0.5020 C   0  0  0  0  0  3  0  0  0  0  0  0
   10.1410    1.0610   -0.0550 C   0  0  0  0  0  3  0  0  0  0  0  0
  1  5  2  0  0  0  0
  1  2  1  0  0  0  0
  2  3  2  0  0  0  0
  4  3  1  0  0  0  0
  5  4  1  0  0  0  0
  6  7  1  0  0  0  0
  7  1  1  0  0  0  0
  8  7  2  0  0  0  0
  9  6  1  0  0  0  0
 10  9  2  0  0  0  0
 11 12  1  0  0  0  0
 12  9  1  0  0  0  0
 13 12  2  0  0  0  0
 14  5  1  0  0  0  0
 15 14  1  0  0  0  0
 15 16  1  0  0  0  0
 17 16  2  0  0  0  0
 18 17  1  0  0  0  0
 19 18  1  0  0  0  0
 20 21  1  0  0  0  0
 20 18  2  0  0  0  0
 21 15  2  0  0  0  0
M  END
>  <minimizedAffinity>
-5.82367992

$$$$
