
 OpenBabel09122222393D

 48 54  0  0  0  0  0  0  0  0999 V2000
    3.5470   -5.6340    4.5240 C   0  0  0  0  0  0  0  0  0  0  0  0
    2.2230   -5.3180    4.8590 C   0  0  0  0  0  3  0  0  0  0  0  0
    1.8640   -4.0050    5.1710 C   0  0  0  0  0  3  0  0  0  0  0  0
    2.8420   -3.0120    5.2010 C   0  0  0  0  0  0  0  0  0  0  0  0
    4.1420   -3.2900    4.7840 C   0  0  0  0  0  3  0  0  0  0  0  0
    4.4870   -4.6000    4.4640 C   0  0  0  0  0  0  0  0  0  0  0  0
    5.7640   -4.8540    4.1440 F   0  0  0  0  0  0  0  0  0  0  0  0
    4.9300  -11.4360    4.9300 C   0  0  0  0  0  0  0  0  0  0  0  0
    5.3720  -11.2840    3.6060 C   0  0  0  0  0  3  0  0  0  0  0  0
    5.2810  -10.0630    2.9220 C   0  0  0  0  0  3  0  0  0  0  0  0
    4.7290   -8.9750    3.6120 C   0  0  0  0  0  0  0  0  0  0  0  0
    4.2760   -9.0940    4.9220 C   0  0  0  0  0  0  0  0  0  0  0  0
    4.3730  -10.3250    5.5890 C   0  0  0  0  0  3  0  0  0  0  0  0
    3.7740   -7.9030    5.3750 N   0  0  0  0  0  0  0  0  0  0  0  0
    3.9330   -7.0370    4.3930 C   0  0  0  0  0  0  0  0  0  0  0  0
    4.4810   -7.6560    3.2800 N   0  0  0  0  0  0  0  0  0  0  0  0
    4.7010   -7.0350    1.9760 C   0  0  0  0  0  3  0  0  0  0  0  0
    6.1890   -6.8230    1.6560 C   0  0  0  0  0  2  0  0  0  0  0  0
    6.3720   -6.1150    0.3160 C   0  0  0  0  0  2  0  0  0  0  0  0
    5.6510   -6.8480   -0.8120 C   0  0  0  0  0  2  0  0  0  0  0  0
    4.1700   -7.0490   -0.4990 C   0  0  0  0  0  2  0  0  0  0  0  0
    3.9670   -7.7640    0.8370 C   0  0  0  0  0  2  0  0  0  0  0  0
    4.0580  -13.5610    5.5550 O   0  0  0  0  0  0  0  0  0  0  0  0
    5.0510  -12.7710    5.6370 C   0  0  0  0  0  0  0  0  0  0  0  0
    6.1370  -13.0050    6.2550 O   0  0  0  0  0  1  0  0  0  0  0  0
    2.4840   -1.7890    5.7050 O   0  0  0  0  0  0  0  0  0  0  0  0
    2.3740   -1.7930    7.1430 C   0  0  0  0  0  2  0  0  0  0  0  0
    3.7100   -2.0360    7.8280 C   0  0  0  0  0  0  0  0  0  0  0  0
    4.8090   -1.2310    7.4530 C   0  0  0  0  0  3  0  0  0  0  0  0
    6.0700   -1.3780    8.0370 C   0  0  0  0  0  0  0  0  0  0  0  0
    6.2450   -2.3510    9.0210 C   0  0  0  0  0  3  0  0  0  0  0  0
    5.1700   -3.1530    9.4140 C   0  0  0  0  0  3  0  0  0  0  0  0
    3.8960   -3.0210    8.8230 C   0  0  0  0  0  0  0  0  0  0  0  0
    7.2650   -0.6610    7.5100 C   0  0  0  0  0  0  0  0  0  0  0  0
    7.3510    0.5360    7.7910 O   0  0  0  0  0  0  0  0  0  0  0  0
    8.2460   -1.3410    6.7920 N   0  0  0  0  0  0  0  0  0  0  0  0
    9.5910   -0.7600    6.7260 C   0  0  0  0  0  2  0  0  0  0  0  0
   10.1210   -0.7080    5.2980 C   0  0  0  0  0  2  0  0  0  0  0  0
   10.0450   -2.0810    4.6360 C   0  0  0  0  0  2  0  0  0  0  0  0
    8.6210   -2.6220    4.7050 C   0  0  0  0  0  2  0  0  0  0  0  0
    8.0950   -2.6420    6.1390 C   0  0  0  0  0  2  0  0  0  0  0  0
    2.8270   -3.9340    9.2480 C   0  0  0  0  0  0  0  0  0  0  0  0
    2.6210   -5.1540    8.5820 C   0  0  0  0  0  3  0  0  0  0  0  0
    1.6080   -6.0280    8.9870 C   0  0  0  0  0  3  0  0  0  0  0  0
    0.7950   -5.6900   10.0660 C   0  0  0  0  0  0  0  0  0  0  0  0
   -0.4520   -6.7640   10.5680 Cl  0  0  0  0  0  0  0  0  0  0  0  0
    0.9870   -4.4880   10.7430 C   0  0  0  0  0  3  0  0  0  0  0  0
    1.9990   -3.6150   10.3360 C   0  0  0  0  0  3  0  0  0  0  0  0
  1  2  1  0  0  0  0
  2  3  2  0  0  0  0
  3  4  1  0  0  0  0
  4 26  1  0  0  0  0
  5  4  2  0  0  0  0
  6  1  2  0  0  0  0
  6  5  1  0  0  0  0
  7  6  1  0  0  0  0
  8 13  1  0  0  0  0
  8 24  1  0  0  0  0
  9  8  2  0  0  0  0
 10  9  1  0  0  0  0
 10 11  2  0  0  0  0
 11 12  1  0  0  0  0
 12 14  1  0  0  0  0
 12 13  2  0  0  0  0
 15  1  1  0  0  0  0
 15 14  2  0  0  0  0
 16 11  1  0  0  0  0
 16 15  1  0  0  0  0
 17 16  1  0  0  0  0
 18 17  1  0  0  0  0
 19 18  1  0  0  0  0
 20 21  1  0  0  0  0
 20 19  1  0  0  0  0
 21 22  1  0  0  0  0
 22 17  1  0  0  0  0
 23 24  2  0  0  0  0
 24 25  1  0  0  0  0
 26 27  1  0  0  0  0
 27 28  1  0  0  0  0
 28 33  1  0  0  0  0
 29 28  2  0  0  0  0
 29 30  1  0  0  0  0
 30 31  2  0  0  0  0
 31 32  1  0  0  0  0
 33 42  1  0  0  0  0
 33 32  2  0  0  0  0
 34 35  2  0  0  0  0
 34 30  1  0  0  0  0
 36 34  1  0  0  0  0
 37 36  1  0  0  0  0
 38 37  1  0  0  0  0
 39 40  1  0  0  0  0
 39 38  1  0  0  0  0
 40 41  1  0  0  0  0
 41 36  1  0  0  0  0
 42 48  1  0  0  0  0
 43 44  1  0  0  0  0
 43 42  2  0  0  0  0
 44 45  2  0  0  0  0
 45 46  1  0  0  0  0
 45 47  1  0  0  0  0
 48 47  2  0  0  0  0
M  END
>  <minimizedAffinity>
-9.44268608

$$$$
