
 OpenBabel09122222393D

 48 54  0  0  0  0  0  0  0  0999 V2000
    4.9310   -4.0190    4.3060 C   0  0  0  0  0  0  0  0  0  0  0  0
    5.1290   -4.6140    5.5590 C   0  0  0  0  0  3  0  0  0  0  0  0
    4.2570   -4.3450    6.6180 C   0  0  0  0  0  3  0  0  0  0  0  0
    3.2150   -3.4360    6.4370 C   0  0  0  0  0  0  0  0  0  0  0  0
    2.9510   -2.9060    5.1770 C   0  0  0  0  0  3  0  0  0  0  0  0
    3.8190   -3.1900    4.1260 C   0  0  0  0  0  0  0  0  0  0  0  0
    3.5880   -2.6020    2.9430 F   0  0  0  0  0  0  0  0  0  0  0  0
    9.5160   -3.8020    0.4750 C   0  0  0  0  0  0  0  0  0  0  0  0
    8.8660   -4.8770   -0.1530 C   0  0  0  0  0  3  0  0  0  0  0  0
    7.6680   -5.4160    0.3370 C   0  0  0  0  0  3  0  0  0  0  0  0
    7.1220   -4.8380    1.4910 C   0  0  0  0  0  0  0  0  0  0  0  0
    7.7440   -3.7760    2.1400 C   0  0  0  0  0  0  0  0  0  0  0  0
    8.9440   -3.2520    1.6370 C   0  0  0  0  0  3  0  0  0  0  0  0
    7.0290   -3.3920    3.2430 N   0  0  0  0  0  0  0  0  0  0  0  0
    5.9610   -4.1640    3.2790 C   0  0  0  0  0  0  0  0  0  0  0  0
    5.9920   -5.0890    2.2470 N   0  0  0  0  0  0  0  0  0  0  0  0
    5.0310   -6.1690    2.0350 C   0  0  0  0  0  3  0  0  0  0  0  0
    4.7750   -6.4600    0.5470 C   0  0  0  0  0  2  0  0  0  0  0  0
    3.7190   -7.5490    0.3710 C   0  0  0  0  0  2  0  0  0  0  0  0
    4.0820   -8.8160    1.1400 C   0  0  0  0  0  2  0  0  0  0  0  0
    4.3270   -8.5290    2.6200 C   0  0  0  0  0  2  0  0  0  0  0  0
    5.3860   -7.4460    2.8170 C   0  0  0  0  0  2  0  0  0  0  0  0
   11.8470   -3.3490    0.6350 O   0  0  0  0  0  1  0  0  0  0  0  0
   10.8070   -3.2440   -0.0890 C   0  0  0  0  0  0  0  0  0  0  0  0
   10.7560   -2.7160   -1.2440 O   0  0  0  0  0  0  0  0  0  0  0  0
    2.5140   -3.0520    7.5500 O   0  0  0  0  0  0  0  0  0  0  0  0
    2.7630   -1.6800    7.9180 C   0  0  0  0  0  2  0  0  0  0  0  0
    4.0970   -1.5000    8.6260 C   0  0  0  0  0  0  0  0  0  0  0  0
    5.1230   -0.8030    7.9500 C   0  0  0  0  0  3  0  0  0  0  0  0
    6.3750   -0.5810    8.5290 C   0  0  0  0  0  0  0  0  0  0  0  0
    6.6160   -1.0660    9.8140 C   0  0  0  0  0  3  0  0  0  0  0  0
    5.6130   -1.7520   10.5040 C   0  0  0  0  0  3  0  0  0  0  0  0
    4.3500   -1.9910    9.9260 C   0  0  0  0  0  0  0  0  0  0  0  0
    7.5090   -0.0140    7.7460 C   0  0  0  0  0  0  0  0  0  0  0  0
    7.5240    1.2120    7.6180 O   0  0  0  0  0  0  0  0  0  0  0  0
    8.5170   -0.8380    7.2500 N   0  0  0  0  0  0  0  0  0  0  0  0
    9.8190   -0.2400    6.9410 C   0  0  0  0  0  2  0  0  0  0  0  0
   10.3130   -0.6310    5.5520 C   0  0  0  0  0  2  0  0  0  0  0  0
   10.3110   -2.1470    5.3790 C   0  0  0  0  0  2  0  0  0  0  0  0
    8.9270   -2.7120    5.6810 C   0  0  0  0  0  2  0  0  0  0  0  0
    8.4360   -2.2880    7.0640 C   0  0  0  0  0  2  0  0  0  0  0  0
    3.3630   -2.7650   10.6900 C   0  0  0  0  0  0  0  0  0  0  0  0
    2.3910   -2.1140   11.4700 C   0  0  0  0  0  3  0  0  0  0  0  0
    1.4470   -2.8470   12.1940 C   0  0  0  0  0  3  0  0  0  0  0  0
    1.4640   -4.2390   12.1420 C   0  0  0  0  0  0  0  0  0  0  0  0
    0.3030   -5.1430   13.0320 Cl  0  0  0  0  0  0  0  0  0  0  0  0
    2.4160   -4.9020   11.3710 C   0  0  0  0  0  3  0  0  0  0  0  0
    3.3600   -4.1680   10.6480 C   0  0  0  0  0  3  0  0  0  0  0  0
  1  2  1  0  0  0  0
  2  3  2  0  0  0  0
  4  3  1  0  0  0  0
  4 26  1  0  0  0  0
  5  4  2  0  0  0  0
  6  1  2  0  0  0  0
  6  5  1  0  0  0  0
  7  6  1  0  0  0  0
  8 13  1  0  0  0  0
  9 10  1  0  0  0  0
  9  8  2  0  0  0  0
 10 11  2  0  0  0  0
 11 12  1  0  0  0  0
 11 16  1  0  0  0  0
 12 14  1  0  0  0  0
 13 12  2  0  0  0  0
 14 15  2  0  0  0  0
 15  1  1  0  0  0  0
 16 15  1  0  0  0  0
 17 16  1  0  0  0  0
 17 22  1  0  0  0  0
 18 17  1  0  0  0  0
 19 18  1  0  0  0  0
 19 20  1  0  0  0  0
 20 21  1  0  0  0  0
 21 22  1  0  0  0  0
 24  8  1  0  0  0  0
 24 23  1  0  0  0  0
 25 24  2  0  0  0  0
 26 27  1  0  0  0  0
 27 28  1  0  0  0  0
 28 33  1  0  0  0  0
 29 30  1  0  0  0  0
 29 28  2  0  0  0  0
 30 31  2  0  0  0  0
 31 32  1  0  0  0  0
 33 32  2  0  0  0  0
 33 42  1  0  0  0  0
 34 30  1  0  0  0  0
 35 34  2  0  0  0  0
 36 34  1  0  0  0  0
 37 36  1  0  0  0  0
 38 37  1  0  0  0  0
 39 38  1  0  0  0  0
 39 40  1  0  0  0  0
 40 41  1  0  0  0  0
 41 36  1  0  0  0  0
 42 43  1  0  0  0  0
 43 44  2  0  0  0  0
 45 44  1  0  0  0  0
 45 46  1  0  0  0  0
 47 45  2  0  0  0  0
 48 42  2  0  0  0  0
 48 47  1  0  0  0  0
M  END
>  <minimizedAffinity>
-9.42314148

$$$$
