
 OpenBabel09122222393D

 48 54  0  0  0  0  0  0  0  0999 V2000
    5.3520   -4.1050    4.0820 C   0  0  0  0  0  0  0  0  0  0  0  0
    4.0250   -4.3530    3.7060 C   0  0  0  0  0  3  0  0  0  0  0  0
    3.0310   -4.5090    4.6750 C   0  0  0  0  0  3  0  0  0  0  0  0
    3.3740   -4.4690    6.0260 C   0  0  0  0  0  0  0  0  0  0  0  0
    4.6680   -4.1350    6.4160 C   0  0  0  0  0  3  0  0  0  0  0  0
    5.6490   -3.9710    5.4420 C   0  0  0  0  0  0  0  0  0  0  0  0
    6.9050   -3.7300    5.8470 F   0  0  0  0  0  0  0  0  0  0  0  0
    9.9830   -3.4670    0.3540 C   0  0  0  0  0  0  0  0  0  0  0  0
    9.3640   -4.4970   -0.3740 C   0  0  0  0  0  3  0  0  0  0  0  0
    8.1710   -5.1000    0.0500 C   0  0  0  0  0  3  0  0  0  0  0  0
    7.5980   -4.6340    1.2410 C   0  0  0  0  0  0  0  0  0  0  0  0
    8.1890   -3.6200    1.9880 C   0  0  0  0  0  0  0  0  0  0  0  0
    9.3840   -3.0300    1.5500 C   0  0  0  0  0  3  0  0  0  0  0  0
    7.4510   -3.3470    3.1090 N   0  0  0  0  0  0  0  0  0  0  0  0
    6.3990   -4.1400    3.0620 C   0  0  0  0  0  0  0  0  0  0  0  0
    6.4630   -4.9730    1.9550 N   0  0  0  0  0  0  0  0  0  0  0  0
    5.5290   -6.0490    1.6360 C   0  0  0  0  0  3  0  0  0  0  0  0
    5.0860   -6.0430    0.1640 C   0  0  0  0  0  2  0  0  0  0  0  0
    4.0630   -7.1420   -0.1100 C   0  0  0  0  0  2  0  0  0  0  0  0
    4.5790   -8.5130    0.3190 C   0  0  0  0  0  2  0  0  0  0  0  0
    5.0090   -8.5220    1.7840 C   0  0  0  0  0  2  0  0  0  0  0  0
    6.0390   -7.4320    2.0770 C   0  0  0  0  0  2  0  0  0  0  0  0
   12.3580   -3.3800    0.2280 O   0  0  0  0  0  1  0  0  0  0  0  0
   11.2690   -2.8370   -0.1410 C   0  0  0  0  0  0  0  0  0  0  0  0
   11.1650   -1.8140   -0.8880 O   0  0  0  0  0  0  0  0  0  0  0  0
    2.4090   -4.8250    6.9320 O   0  0  0  0  0  0  0  0  0  0  0  0
    1.7080   -6.0270    6.5520 C   0  0  0  0  0  2  0  0  0  0  0  0
    2.4600   -7.2880    6.9480 C   0  0  0  0  0  0  0  0  0  0  0  0
    3.1270   -8.0130    5.9360 C   0  0  0  0  0  3  0  0  0  0  0  0
    3.8510   -9.1770    6.2110 C   0  0  0  0  0  0  0  0  0  0  0  0
    3.9130   -9.6330    7.5270 C   0  0  0  0  0  3  0  0  0  0  0  0
    3.2680   -8.9270    8.5460 C   0  0  0  0  0  3  0  0  0  0  0  0
    2.5250   -7.7590    8.2780 C   0  0  0  0  0  0  0  0  0  0  0  0
    4.3920  -10.0370    5.1210 C   0  0  0  0  0  0  0  0  0  0  0  0
    5.6190  -10.1180    5.0500 O   0  0  0  0  0  0  0  0  0  0  0  0
    3.5370  -10.7470    4.2810 N   0  0  0  0  0  0  0  0  0  0  0  0
    4.0630  -11.9240    3.5830 C   0  0  0  0  0  2  0  0  0  0  0  0
    3.7390  -11.8970    2.0940 C   0  0  0  0  0  2  0  0  0  0  0  0
    2.2430  -11.7030    1.8640 C   0  0  0  0  0  2  0  0  0  0  0  0
    1.7560  -10.4500    2.5840 C   0  0  0  0  0  2  0  0  0  0  0  0
    2.1130  -10.4800    4.0690 C   0  0  0  0  0  2  0  0  0  0  0  0
    1.8290   -7.0990    9.3910 C   0  0  0  0  0  0  0  0  0  0  0  0
    2.4930   -6.1510   10.1880 C   0  0  0  0  0  3  0  0  0  0  0  0
    1.8330   -5.5170   11.2450 C   0  0  0  0  0  3  0  0  0  0  0  0
    0.5010   -5.8240   11.5100 C   0  0  0  0  0  0  0  0  0  0  0  0
   -0.3150   -5.0440   12.8100 Cl  0  0  0  0  0  0  0  0  0  0  0  0
   -0.1760   -6.7560   10.7280 C   0  0  0  0  0  3  0  0  0  0  0  0
    0.4860   -7.3900    9.6730 C   0  0  0  0  0  3  0  0  0  0  0  0
  1  6  1  0  0  0  0
  2  1  2  0  0  0  0
  2  3  1  0  0  0  0
  3  4  2  0  0  0  0
  4  5  1  0  0  0  0
  4 26  1  0  0  0  0
  6  7  1  0  0  0  0
  6  5  2  0  0  0  0
  8 13  1  0  0  0  0
  9 10  1  0  0  0  0
  9  8  2  0  0  0  0
 10 11  2  0  0  0  0
 11 16  1  0  0  0  0
 11 12  1  0  0  0  0
 12 14  1  0  0  0  0
 13 12  2  0  0  0  0
 15 14  2  0  0  0  0
 15  1  1  0  0  0  0
 16 15  1  0  0  0  0
 17 16  1  0  0  0  0
 17 22  1  0  0  0  0
 18 17  1  0  0  0  0
 19 18  1  0  0  0  0
 19 20  1  0  0  0  0
 20 21  1  0  0  0  0
 21 22  1  0  0  0  0
 24 23  1  0  0  0  0
 24  8  1  0  0  0  0
 25 24  2  0  0  0  0
 27 26  1  0  0  0  0
 27 28  1  0  0  0  0
 28 33  1  0  0  0  0
 29 30  1  0  0  0  0
 29 28  2  0  0  0  0
 30 31  2  0  0  0  0
 31 32  1  0  0  0  0
 33 32  2  0  0  0  0
 33 42  1  0  0  0  0
 34 30  1  0  0  0  0
 35 34  2  0  0  0  0
 36 34  1  0  0  0  0
 37 36  1  0  0  0  0
 38 37  1  0  0  0  0
 39 38  1  0  0  0  0
 39 40  1  0  0  0  0
 40 41  1  0  0  0  0
 41 36  1  0  0  0  0
 42 48  2  0  0  0  0
 42 43  1  0  0  0  0
 43 44  2  0  0  0  0
 44 45  1  0  0  0  0
 45 46  1  0  0  0  0
 47 45  2  0  0  0  0
 48 47  1  0  0  0  0
M  END
>  <minimizedAffinity>
-8.70120811

$$$$
