
 OpenBabel09122222393D

 48 54  0  0  0  0  0  0  0  0999 V2000
    2.9230   -7.2260    4.6470 C   0  0  0  0  0  0  0  0  0  0  0  0
    2.8590   -8.4510    5.3250 C   0  0  0  0  0  3  0  0  0  0  0  0
    2.0090   -8.6110    6.4210 C   0  0  0  0  0  3  0  0  0  0  0  0
    1.2590   -7.5270    6.8760 C   0  0  0  0  0  0  0  0  0  0  0  0
    1.2440   -6.3320    6.1620 C   0  0  0  0  0  3  0  0  0  0  0  0
    2.0860   -6.1860    5.0630 C   0  0  0  0  0  0  0  0  0  0  0  0
    2.1110   -4.9980    4.4420 F   0  0  0  0  0  0  0  0  0  0  0  0
    7.2460   -5.5340    0.8790 C   0  0  0  0  0  0  0  0  0  0  0  0
    6.9690   -6.7490    0.2310 C   0  0  0  0  0  3  0  0  0  0  0  0
    5.9950   -7.6410    0.6990 C   0  0  0  0  0  3  0  0  0  0  0  0
    5.2860   -7.2800    1.8520 C   0  0  0  0  0  0  0  0  0  0  0  0
    5.5400   -6.0860    2.5210 C   0  0  0  0  0  0  0  0  0  0  0  0
    6.5210   -5.2070    2.0390 C   0  0  0  0  0  3  0  0  0  0  0  0
    4.7310   -5.9600    3.6190 N   0  0  0  0  0  0  0  0  0  0  0  0
    3.9560   -7.0280    3.6320 C   0  0  0  0  0  0  0  0  0  0  0  0
    4.2830   -7.8820    2.5900 N   0  0  0  0  0  0  0  0  0  0  0  0
    3.7100   -9.2040    2.3530 C   0  0  0  0  0  3  0  0  0  0  0  0
    2.9400   -9.2950    1.0260 C   0  0  0  0  0  2  0  0  0  0  0  0
    2.3030  -10.6710    0.8490 C   0  0  0  0  0  2  0  0  0  0  0  0
    3.3330  -11.7900    0.9820 C   0  0  0  0  0  2  0  0  0  0  0  0
    4.0910  -11.7060    2.3050 C   0  0  0  0  0  2  0  0  0  0  0  0
    4.7410  -10.3360    2.4970 C   0  0  0  0  0  2  0  0  0  0  0  0
    8.7410   -3.6990    1.1300 O   0  0  0  0  0  1  0  0  0  0  0  0
    8.3040   -4.5930    0.3380 C   0  0  0  0  0  0  0  0  0  0  0  0
    8.6780   -4.7680   -0.8640 O   0  0  0  0  0  0  0  0  0  0  0  0
    0.5990   -7.6730    8.0670 O   0  0  0  0  0  0  0  0  0  0  0  0
    0.8710   -6.5970    8.9880 C   0  0  0  0  0  2  0  0  0  0  0  0
    2.2490   -6.7080    9.6220 C   0  0  0  0  0  0  0  0  0  0  0  0
    2.5660   -7.8900   10.3280 C   0  0  0  0  0  3  0  0  0  0  0  0
    3.8110   -8.0820   10.9320 C   0  0  0  0  0  0  0  0  0  0  0  0
    4.7680   -7.0730   10.8330 C   0  0  0  0  0  3  0  0  0  0  0  0
    4.4790   -5.8980   10.1330 C   0  0  0  0  0  3  0  0  0  0  0  0
    3.2220   -5.6890    9.5290 C   0  0  0  0  0  0  0  0  0  0  0  0
    4.0740   -9.2420   11.8290 C   0  0  0  0  0  0  0  0  0  0  0  0
    4.1740   -8.9900   13.0310 O   0  0  0  0  0  0  0  0  0  0  0  0
    4.1400  -10.5370   11.3210 N   0  0  0  0  0  0  0  0  0  0  0  0
    3.9010  -11.6590   12.2350 C   0  0  0  0  0  2  0  0  0  0  0  0
    4.9840  -12.7260   12.1240 C   0  0  0  0  0  2  0  0  0  0  0  0
    5.1590  -13.1790   10.6780 C   0  0  0  0  0  2  0  0  0  0  0  0
    5.4370  -11.9790    9.7780 C   0  0  0  0  0  2  0  0  0  0  0  0
    4.3570  -10.9080    9.9210 C   0  0  0  0  0  2  0  0  0  0  0  0
    2.9720   -4.4080    8.8540 C   0  0  0  0  0  0  0  0  0  0  0  0
    3.5130   -4.1520    7.5830 C   0  0  0  0  0  3  0  0  0  0  0  0
    3.2730   -2.9360    6.9350 C   0  0  0  0  0  3  0  0  0  0  0  0
    2.4850   -1.9680    7.5540 C   0  0  0  0  0  0  0  0  0  0  0  0
    2.1880   -0.4710    6.7590 Cl  0  0  0  0  0  0  0  0  0  0  0  0
    1.9360   -2.2050    8.8120 C   0  0  0  0  0  3  0  0  0  0  0  0
    2.1780   -3.4200    9.4580 C   0  0  0  0  0  3  0  0  0  0  0  0
  1  6  2  0  0  0  0
  1  2  1  0  0  0  0
  2  3  2  0  0  0  0
  3  4  1  0  0  0  0
  4 26  1  0  0  0  0
  5  4  2  0  0  0  0
  6  5  1  0  0  0  0
  7  6  1  0  0  0  0
  8 13  1  0  0  0  0
  9 10  1  0  0  0  0
  9  8  2  0  0  0  0
 10 11  2  0  0  0  0
 11 12  1  0  0  0  0
 11 16  1  0  0  0  0
 12 14  1  0  0  0  0
 13 12  2  0  0  0  0
 14 15  2  0  0  0  0
 15  1  1  0  0  0  0
 16 15  1  0  0  0  0
 17 22  1  0  0  0  0
 17 16  1  0  0  0  0
 18 17  1  0  0  0  0
 19 20  1  0  0  0  0
 19 18  1  0  0  0  0
 20 21  1  0  0  0  0
 21 22  1  0  0  0  0
 24  8  1  0  0  0  0
 24 23  1  0  0  0  0
 25 24  2  0  0  0  0
 26 27  1  0  0  0  0
 27 28  1  0  0  0  0
 28 29  1  0  0  0  0
 29 30  2  0  0  0  0
 30 34  1  0  0  0  0
 31 30  1  0  0  0  0
 32 31  2  0  0  0  0
 33 28  2  0  0  0  0
 33 32  1  0  0  0  0
 34 35  2  0  0  0  0
 36 34  1  0  0  0  0
 36 37  1  0  0  0  0
 38 37  1  0  0  0  0
 39 38  1  0  0  0  0
 40 41  1  0  0  0  0
 40 39  1  0  0  0  0
 41 36  1  0  0  0  0
 42 48  1  0  0  0  0
 42 33  1  0  0  0  0
 43 42  2  0  0  0  0
 44 45  2  0  0  0  0
 44 43  1  0  0  0  0
 45 47  1  0  0  0  0
 46 45  1  0  0  0  0
 47 48  2  0  0  0  0
M  END
>  <minimizedAffinity>
-8.67413425

$$$$
