
 OpenBabel09122222393D

 48 54  0  0  0  0  0  0  0  0999 V2000
    3.3920   -7.6910    4.9620 C   0  0  0  0  0  0  0  0  0  0  0  0
    2.3290   -6.8240    5.2520 C   0  0  0  0  0  3  0  0  0  0  0  0
    1.4830   -7.0760    6.3340 C   0  0  0  0  0  3  0  0  0  0  0  0
    1.6660   -8.2290    7.0980 C   0  0  0  0  0  0  0  0  0  0  0  0
    2.7680   -9.0520    6.8800 C   0  0  0  0  0  3  0  0  0  0  0  0
    3.6130   -8.7850    5.8050 C   0  0  0  0  0  0  0  0  0  0  0  0
    4.6190   -9.6390    5.5690 F   0  0  0  0  0  0  0  0  0  0  0  0
    6.6870   -6.0970    0.2350 C   0  0  0  0  0  0  0  0  0  0  0  0
    6.1810   -7.2730   -0.3430 C   0  0  0  0  0  3  0  0  0  0  0  0
    5.3100   -8.1300    0.3450 C   0  0  0  0  0  3  0  0  0  0  0  0
    4.9460   -7.7710    1.6500 C   0  0  0  0  0  0  0  0  0  0  0  0
    5.4330   -6.6160    2.2520 C   0  0  0  0  0  0  0  0  0  0  0  0
    6.3060   -5.7720    1.5500 C   0  0  0  0  0  3  0  0  0  0  0  0
    4.9430   -6.4850    3.5250 N   0  0  0  0  0  0  0  0  0  0  0  0
    4.1370   -7.5120    3.7180 C   0  0  0  0  0  0  0  0  0  0  0  0
    4.1340   -8.3460    2.6110 N   0  0  0  0  0  0  0  0  0  0  0  0
    3.4430   -9.6280    2.5060 C   0  0  0  0  0  3  0  0  0  0  0  0
    2.5130   -9.7100    1.2850 C   0  0  0  0  0  2  0  0  0  0  0  0
    1.7620  -11.0390    1.2480 C   0  0  0  0  0  2  0  0  0  0  0  0
    2.7180  -12.2270    1.3120 C   0  0  0  0  0  2  0  0  0  0  0  0
    3.6350  -12.1520    2.5300 C   0  0  0  0  0  2  0  0  0  0  0  0
    4.4000  -10.8300    2.5800 C   0  0  0  0  0  2  0  0  0  0  0  0
    8.7310   -4.9010    0.0040 O   0  0  0  0  0  1  0  0  0  0  0  0
    7.6220   -5.1940   -0.5440 C   0  0  0  0  0  0  0  0  0  0  0  0
    7.2300   -4.7980   -1.6870 O   0  0  0  0  0  0  0  0  0  0  0  0
    0.6970   -8.5370    8.0160 O   0  0  0  0  0  0  0  0  0  0  0  0
    1.2440   -8.8860    9.3040 C   0  0  0  0  0  2  0  0  0  0  0  0
    1.9960   -7.7320    9.9490 C   0  0  0  0  0  0  0  0  0  0  0  0
    1.5050   -6.4220    9.7520 C   0  0  0  0  0  3  0  0  0  0  0  0
    2.1260   -5.3050   10.3160 C   0  0  0  0  0  0  0  0  0  0  0  0
    3.2660   -5.4930   11.0980 C   0  0  0  0  0  3  0  0  0  0  0  0
    3.7640   -6.7810   11.3130 C   0  0  0  0  0  3  0  0  0  0  0  0
    3.1520   -7.9150   10.7400 C   0  0  0  0  0  0  0  0  0  0  0  0
    1.7190   -3.9180    9.9540 C   0  0  0  0  0  0  0  0  0  0  0  0
    0.8060   -3.4260   10.6200 O   0  0  0  0  0  0  0  0  0  0  0  0
    2.3900   -3.2150    8.9550 N   0  0  0  0  0  0  0  0  0  0  0  0
    2.3160   -1.7510    8.9620 C   0  0  0  0  0  2  0  0  0  0  0  0
    1.9430   -1.1910    7.5950 C   0  0  0  0  0  2  0  0  0  0  0  0
    2.8770   -1.7240    6.5130 C   0  0  0  0  0  2  0  0  0  0  0  0
    2.8900   -3.2480    6.5290 C   0  0  0  0  0  2  0  0  0  0  0  0
    3.2390   -3.7930    7.9120 C   0  0  0  0  0  2  0  0  0  0  0  0
    3.7620   -9.2320   10.9660 C   0  0  0  0  0  0  0  0  0  0  0  0
    4.1590  -10.0320    9.8810 C   0  0  0  0  0  3  0  0  0  0  0  0
    4.7450  -11.2840   10.0930 C   0  0  0  0  0  3  0  0  0  0  0  0
    4.9420  -11.7430   11.3930 C   0  0  0  0  0  0  0  0  0  0  0  0
    5.6640  -13.2830   11.6560 Cl  0  0  0  0  0  0  0  0  0  0  0  0
    4.5610  -10.9620   12.4810 C   0  0  0  0  0  3  0  0  0  0  0  0
    3.9750   -9.7120   12.2680 C   0  0  0  0  0  3  0  0  0  0  0  0
  1  2  2  0  0  0  0
  1  6  1  0  0  0  0
  2  3  1  0  0  0  0
  3  4  2  0  0  0  0
  4 26  1  0  0  0  0
  5  4  1  0  0  0  0
  6  5  2  0  0  0  0
  7  6  1  0  0  0  0
  8 13  1  0  0  0  0
  9  8  2  0  0  0  0
  9 10  1  0  0  0  0
 10 11  2  0  0  0  0
 11 12  1  0  0  0  0
 11 16  1  0  0  0  0
 12 14  1  0  0  0  0
 13 12  2  0  0  0  0
 14 15  2  0  0  0  0
 15  1  1  0  0  0  0
 16 15  1  0  0  0  0
 17 22  1  0  0  0  0
 17 16  1  0  0  0  0
 18 17  1  0  0  0  0
 19 18  1  0  0  0  0
 19 20  1  0  0  0  0
 20 21  1  0  0  0  0
 21 22  1  0  0  0  0
 24 23  1  0  0  0  0
 24  8  1  0  0  0  0
 25 24  2  0  0  0  0
 26 27  1  0  0  0  0
 27 28  1  0  0  0  0
 28 33  1  0  0  0  0
 29 28  2  0  0  0  0
 29 30  1  0  0  0  0
 30 31  2  0  0  0  0
 31 32  1  0  0  0  0
 33 42  1  0  0  0  0
 33 32  2  0  0  0  0
 34 30  1  0  0  0  0
 34 35  2  0  0  0  0
 36 37  1  0  0  0  0
 36 34  1  0  0  0  0
 38 37  1  0  0  0  0
 39 40  1  0  0  0  0
 39 38  1  0  0  0  0
 40 41  1  0  0  0  0
 41 36  1  0  0  0  0
 42 48  1  0  0  0  0
 43 44  1  0  0  0  0
 43 42  2  0  0  0  0
 44 45  2  0  0  0  0
 45 46  1  0  0  0  0
 45 47  1  0  0  0  0
 48 47  2  0  0  0  0
M  END
>  <minimizedAffinity>
-8.94973183

$$$$
