
 OpenBabel09122222393D

 48 54  0  0  0  0  0  0  0  0999 V2000
    4.3180   -2.3370    6.6010 C   0  0  0  0  0  0  0  0  0  0  0  0
    5.2960   -3.1690    6.0380 C   0  0  0  0  0  3  0  0  0  0  0  0
    5.0560   -3.8280    4.8300 C   0  0  0  0  0  3  0  0  0  0  0  0
    3.8150   -3.6970    4.2080 C   0  0  0  0  0  0  0  0  0  0  0  0
    2.8670   -2.8060    4.7050 C   0  0  0  0  0  3  0  0  0  0  0  0
    3.1200   -2.1450    5.9040 C   0  0  0  0  0  0  0  0  0  0  0  0
    2.1580   -1.3550    6.4030 F   0  0  0  0  0  0  0  0  0  0  0  0
    5.6650    0.4680   11.7060 C   0  0  0  0  0  0  0  0  0  0  0  0
    5.0340   -0.6270   12.3160 C   0  0  0  0  0  3  0  0  0  0  0  0
    4.4660   -1.6720   11.5730 C   0  0  0  0  0  3  0  0  0  0  0  0
    4.5510   -1.5950   10.1770 C   0  0  0  0  0  0  0  0  0  0  0  0
    5.1650   -0.5200    9.5410 C   0  0  0  0  0  0  0  0  0  0  0  0
    5.7260    0.5180   10.3010 C   0  0  0  0  0  3  0  0  0  0  0  0
    5.1160   -0.6650    8.1800 N   0  0  0  0  0  0  0  0  0  0  0  0
    4.5170   -1.8180    7.9520 C   0  0  0  0  0  0  0  0  0  0  0  0
    4.1210   -2.4070    9.1440 N   0  0  0  0  0  0  0  0  0  0  0  0
    3.3400   -3.6340    9.2750 C   0  0  0  0  0  3  0  0  0  0  0  0
    4.1500   -4.8000    9.8640 C   0  0  0  0  0  2  0  0  0  0  0  0
    3.3170   -6.0780    9.9240 C   0  0  0  0  0  2  0  0  0  0  0  0
    2.0070   -5.8620   10.6770 C   0  0  0  0  0  2  0  0  0  0  0  0
    1.1980   -4.7110   10.0850 C   0  0  0  0  0  2  0  0  0  0  0  0
    2.0140   -3.4200   10.0240 C   0  0  0  0  0  2  0  0  0  0  0  0
    5.5570    2.6070   12.7460 O   0  0  0  0  0  0  0  0  0  0  0  0
    6.2730    1.5760   12.5440 C   0  0  0  0  0  0  0  0  0  0  0  0
    7.4510    1.3910   12.9840 O   0  0  0  0  0  1  0  0  0  0  0  0
    3.5560   -4.5140    3.1390 O   0  0  0  0  0  0  0  0  0  0  0  0
    4.6840   -4.6350    2.2480 C   0  0  0  0  0  2  0  0  0  0  0  0
    5.2750   -6.0360    2.2450 C   0  0  0  0  0  0  0  0  0  0  0  0
    4.4870   -7.0950    2.7480 C   0  0  0  0  0  3  0  0  0  0  0  0
    4.9460   -8.4150    2.7740 C   0  0  0  0  0  0  0  0  0  0  0  0
    6.2230   -8.6910    2.2870 C   0  0  0  0  0  3  0  0  0  0  0  0
    7.0180   -7.6600    1.7780 C   0  0  0  0  0  3  0  0  0  0  0  0
    6.5690   -6.3240    1.7570 C   0  0  0  0  0  0  0  0  0  0  0  0
    4.1910   -9.4920    3.4730 C   0  0  0  0  0  0  0  0  0  0  0  0
    4.6220   -9.8320    4.5760 O   0  0  0  0  0  0  0  0  0  0  0  0
    3.0300  -10.0270    2.9170 N   0  0  0  0  0  0  0  0  0  0  0  0
    2.0700  -10.6860    3.8070 C   0  0  0  0  0  2  0  0  0  0  0  0
    1.6510  -12.0550    3.2820 C   0  0  0  0  0  2  0  0  0  0  0  0
    1.1450  -11.9580    1.8460 C   0  0  0  0  0  2  0  0  0  0  0  0
    2.1950  -11.2950    0.9590 C   0  0  0  0  0  2  0  0  0  0  0  0
    2.6230   -9.9380    1.5140 C   0  0  0  0  0  2  0  0  0  0  0  0
    7.4800   -5.2850    1.2550 C   0  0  0  0  0  0  0  0  0  0  0  0
    7.9080   -4.2430    2.0950 C   0  0  0  0  0  3  0  0  0  0  0  0
    8.7780   -3.2560    1.6230 C   0  0  0  0  0  3  0  0  0  0  0  0
    9.2310   -3.3070    0.3070 C   0  0  0  0  0  0  0  0  0  0  0  0
   10.3020   -2.0940   -0.2770 Cl  0  0  0  0  0  0  0  0  0  0  0  0
    8.8220   -4.3340   -0.5400 C   0  0  0  0  0  3  0  0  0  0  0  0
    7.9510   -5.3200   -0.0660 C   0  0  0  0  0  3  0  0  0  0  0  0
  1 15  1  0  0  0  0
  2  1  1  0  0  0  0
  3  2  2  0  0  0  0
  4  5  2  0  0  0  0
  4  3  1  0  0  0  0
  5  6  1  0  0  0  0
  6  7  1  0  0  0  0
  6  1  2  0  0  0  0
  8  9  1  0  0  0  0
  8 24  1  0  0  0  0
 10  9  2  0  0  0  0
 11 10  1  0  0  0  0
 12 11  2  0  0  0  0
 12 13  1  0  0  0  0
 13  8  2  0  0  0  0
 14 12  1  0  0  0  0
 15 14  2  0  0  0  0
 15 16  1  0  0  0  0
 16 17  1  0  0  0  0
 16 11  1  0  0  0  0
 17 18  1  0  0  0  0
 17 22  1  0  0  0  0
 18 19  1  0  0  0  0
 19 20  1  0  0  0  0
 21 20  1  0  0  0  0
 22 21  1  0  0  0  0
 24 23  2  0  0  0  0
 24 25  1  0  0  0  0
 26  4  1  0  0  0  0
 27 26  1  0  0  0  0
 28 27  1  0  0  0  0
 28 29  1  0  0  0  0
 29 30  2  0  0  0  0
 30 34  1  0  0  0  0
 31 30  1  0  0  0  0
 32 31  2  0  0  0  0
 33 32  1  0  0  0  0
 33 28  2  0  0  0  0
 34 35  2  0  0  0  0
 36 34  1  0  0  0  0
 36 37  1  0  0  0  0
 38 37  1  0  0  0  0
 39 38  1  0  0  0  0
 40 41  1  0  0  0  0
 40 39  1  0  0  0  0
 41 36  1  0  0  0  0
 42 33  1  0  0  0  0
 42 43  1  0  0  0  0
 44 43  2  0  0  0  0
 45 44  1  0  0  0  0
 46 45  1  0  0  0  0
 47 48  1  0  0  0  0
 47 45  2  0  0  0  0
 48 42  2  0  0  0  0
M  END
>  <minimizedAffinity>
-9.16269302

$$$$
