
 OpenBabel09122222393D

 48 54  0  0  0  0  0  0  0  0999 V2000
    3.7410   -5.2640    6.3940 C   0  0  0  0  0  0  0  0  0  0  0  0
    2.8100   -5.2150    5.3480 C   0  0  0  0  0  3  0  0  0  0  0  0
    1.8800   -6.2430    5.1780 C   0  0  0  0  0  3  0  0  0  0  0  0
    1.9150   -7.3510    6.0240 C   0  0  0  0  0  0  0  0  0  0  0  0
    2.7730   -7.3740    7.1210 C   0  0  0  0  0  3  0  0  0  0  0  0
    3.6880   -6.3390    7.2880 C   0  0  0  0  0  0  0  0  0  0  0  0
    4.5570   -6.4260    8.3060 F   0  0  0  0  0  0  0  0  0  0  0  0
    8.5810   -1.7910    5.8840 C   0  0  0  0  0  0  0  0  0  0  0  0
    8.0310   -1.0980    6.9750 C   0  0  0  0  0  3  0  0  0  0  0  0
    6.8100   -1.4670    7.5570 C   0  0  0  0  0  3  0  0  0  0  0  0
    6.1420   -2.5720    7.0140 C   0  0  0  0  0  0  0  0  0  0  0  0
    6.6570   -3.2770    5.9310 C   0  0  0  0  0  0  0  0  0  0  0  0
    7.8790   -2.8910    5.3590 C   0  0  0  0  0  3  0  0  0  0  0  0
    5.8240   -4.3050    5.5770 N   0  0  0  0  0  0  0  0  0  0  0  0
    4.8210   -4.2800    6.4330 C   0  0  0  0  0  0  0  0  0  0  0  0
    4.9530   -3.2140    7.3100 N   0  0  0  0  0  0  0  0  0  0  0  0
    3.9820   -2.8120    8.3240 C   0  0  0  0  0  3  0  0  0  0  0  0
    4.5300   -2.9160    9.7550 C   0  0  0  0  0  2  0  0  0  0  0  0
    3.4640   -2.5500   10.7850 C   0  0  0  0  0  2  0  0  0  0  0  0
    2.8630   -1.1750   10.5080 C   0  0  0  0  0  2  0  0  0  0  0  0
    2.3080   -1.0750    9.0890 C   0  0  0  0  0  2  0  0  0  0  0  0
    3.3640   -1.4320    8.0440 C   0  0  0  0  0  2  0  0  0  0  0  0
   10.8760   -2.1820    5.3860 O   0  0  0  0  0  1  0  0  0  0  0  0
    9.9060   -1.3640    5.2860 C   0  0  0  0  0  0  0  0  0  0  0  0
    9.9510   -0.2240    4.7260 O   0  0  0  0  0  0  0  0  0  0  0  0
    1.1220   -8.4190    5.6970 O   0  0  0  0  0  0  0  0  0  0  0  0
    1.5930   -9.1230    4.5300 C   0  0  0  0  0  2  0  0  0  0  0  0
    2.8480   -9.9360    4.8070 C   0  0  0  0  0  0  0  0  0  0  0  0
    2.8040  -10.9020    5.8360 C   0  0  0  0  0  3  0  0  0  0  0  0
    3.9060  -11.7010    6.1520 C   0  0  0  0  0  0  0  0  0  0  0  0
    5.0850  -11.5350    5.4270 C   0  0  0  0  0  3  0  0  0  0  0  0
    5.1490  -10.5910    4.3990 C   0  0  0  0  0  3  0  0  0  0  0  0
    4.0470   -9.7720    4.0790 C   0  0  0  0  0  0  0  0  0  0  0  0
    3.9150  -12.5810    7.3540 C   0  0  0  0  0  0  0  0  0  0  0  0
    3.5830  -13.7540    7.1730 O   0  0  0  0  0  0  0  0  0  0  0  0
    4.3370  -12.0970    8.5910 N   0  0  0  0  0  0  0  0  0  0  0  0
    4.8020  -13.0590    9.5950 C   0  0  0  0  0  2  0  0  0  0  0  0
    4.1440  -12.8320   10.9510 C   0  0  0  0  0  2  0  0  0  0  0  0
    4.3140  -11.3850   11.4050 C   0  0  0  0  0  2  0  0  0  0  0  0
    3.7850  -10.4310   10.3400 C   0  0  0  0  0  2  0  0  0  0  0  0
    4.4340  -10.6900    8.9810 C   0  0  0  0  0  2  0  0  0  0  0  0
    4.2040   -8.7640    3.0210 C   0  0  0  0  0  0  0  0  0  0  0  0
    4.7560   -7.5040    3.3100 C   0  0  0  0  0  3  0  0  0  0  0  0
    4.9130   -6.5450    2.3050 C   0  0  0  0  0  3  0  0  0  0  0  0
    4.5210   -6.8400    1.0010 C   0  0  0  0  0  0  0  0  0  0  0  0
    4.7130   -5.6610   -0.2370 Cl  0  0  0  0  0  0  0  0  0  0  0  0
    3.9760   -8.0850    0.6940 C   0  0  0  0  0  3  0  0  0  0  0  0
    3.8200   -9.0420    1.7000 C   0  0  0  0  0  3  0  0  0  0  0  0
  1 15  1  0  0  0  0
  1  6  1  0  0  0  0
  2  1  2  0  0  0  0
  3  2  1  0  0  0  0
  3  4  2  0  0  0  0
  4  5  1  0  0  0  0
  5  6  2  0  0  0  0
  6  7  1  0  0  0  0
  8  9  1  0  0  0  0
  9 10  2  0  0  0  0
 11 16  1  0  0  0  0
 11 10  1  0  0  0  0
 12 11  2  0  0  0  0
 13  8  2  0  0  0  0
 13 12  1  0  0  0  0
 14 12  1  0  0  0  0
 14 15  2  0  0  0  0
 15 16  1  0  0  0  0
 16 17  1  0  0  0  0
 17 18  1  0  0  0  0
 18 19  1  0  0  0  0
 20 19  1  0  0  0  0
 21 20  1  0  0  0  0
 22 17  1  0  0  0  0
 22 21  1  0  0  0  0
 24 23  1  0  0  0  0
 24  8  1  0  0  0  0
 25 24  2  0  0  0  0
 26  4  1  0  0  0  0
 27 28  1  0  0  0  0
 27 26  1  0  0  0  0
 28 29  1  0  0  0  0
 29 30  2  0  0  0  0
 30 34  1  0  0  0  0
 31 30  1  0  0  0  0
 32 31  2  0  0  0  0
 33 32  1  0  0  0  0
 33 28  2  0  0  0  0
 34 36  1  0  0  0  0
 35 34  2  0  0  0  0
 36 41  1  0  0  0  0
 36 37  1  0  0  0  0
 37 38  1  0  0  0  0
 38 39  1  0  0  0  0
 40 39  1  0  0  0  0
 41 40  1  0  0  0  0
 42 43  1  0  0  0  0
 42 33  1  0  0  0  0
 44 43  2  0  0  0  0
 45 44  1  0  0  0  0
 46 45  1  0  0  0  0
 47 45  2  0  0  0  0
 47 48  1  0  0  0  0
 48 42  2  0  0  0  0
M  END
>  <minimizedAffinity>
-8.81238747

$$$$
