
 OpenBabel09122222393D

 21 22  0  0  0  0  0  0  0  0999 V2000
    9.9120   -2.9420    0.7310 C   0  0  0  0  0  0  0  0  0  0  0  0
   10.0240   -2.3220    1.9640 C   0  0  0  0  0  3  0  0  0  0  0  0
    8.9840   -2.7950    2.7970 C   0  0  0  0  0  3  0  0  0  0  0  0
    8.2560   -3.7030    2.0610 C   0  0  0  0  0  3  0  0  0  0  0  0
    8.8420   -3.8230    0.8160 N   0  0  0  0  0  0  0  0  0  0  0  0
   10.6090   -1.6370   -1.0880 C   0  0  0  0  0  2  0  0  0  0  0  0
   10.6960   -2.8360   -0.4710 C   0  0  0  0  0  0  0  0  0  0  0  0
   11.3140   -3.9120   -0.6940 O   0  0  0  0  0  0  0  0  0  0  0  0
   11.2890   -1.1440   -2.3400 C   0  0  0  0  0  0  0  0  0  0  0  0
   10.7350   -0.6420   -3.3160 O   0  0  0  0  0  0  0  0  0  0  0  0
   13.3270   -2.3790   -2.9020 O   0  0  0  0  0  0  0  0  0  0  0  0
   12.8420   -1.2910   -2.4350 C   0  0  0  0  0  0  0  0  0  0  0  0
   13.5470   -0.3000   -2.0330 O   0  0  0  0  0  1  0  0  0  0  0  0
    8.3820   -4.6700   -0.2870 C   0  0  0  0  0  2  0  0  0  0  0  0
    7.3680   -5.7200    0.1280 C   0  0  0  0  0  0  0  0  0  0  0  0
    7.6850   -6.6690    1.1140 C   0  0  0  0  0  3  0  0  0  0  0  0
    6.7530   -7.6360    1.4960 C   0  0  0  0  0  3  0  0  0  0  0  0
    5.4950   -7.6630    0.8950 C   0  0  0  0  0  3  0  0  0  0  0  0
    5.1800   -6.7240   -0.0820 C   0  0  0  0  0  0  0  0  0  0  0  0
    3.9680   -6.7610   -0.6540 F   0  0  0  0  0  0  0  0  0  0  0  0
    6.0990   -5.7560   -0.4700 C   0  0  0  0  0  3  0  0  0  0  0  0
  1  5  1  0  0  0  0
  1  2  2  0  0  0  0
  2  3  1  0  0  0  0
  4  3  2  0  0  0  0
  5  4  1  0  0  0  0
  6  7  1  0  0  0  0
  7  1  1  0  0  0  0
  8  7  2  0  0  0  0
  9  6  1  0  0  0  0
 10  9  2  0  0  0  0
 11 12  2  0  0  0  0
 12  9  1  0  0  0  0
 12 13  1  0  0  0  0
 14 15  1  0  0  0  0
 14  5  1  0  0  0  0
 15 16  1  0  0  0  0
 16 17  2  0  0  0  0
 18 17  1  0  0  0  0
 19 18  2  0  0  0  0
 20 19  1  0  0  0  0
 21 19  1  0  0  0  0
 21 15  2  0  0  0  0
M  END
>  <minimizedAffinity>
-7.3326354

$$$$
