
 OpenBabel09122222393D

 21 22  0  0  0  0  0  0  0  0999 V2000
   11.3890   -3.1360   -0.3760 C   0  0  0  0  0  0  0  0  0  0  0  0
   12.6380   -3.7210   -0.2440 C   0  0  0  0  0  3  0  0  0  0  0  0
   13.5660   -2.9630   -0.9930 C   0  0  0  0  0  3  0  0  0  0  0  0
   12.8720   -1.9210   -1.5650 C   0  0  0  0  0  3  0  0  0  0  0  0
   11.5540   -2.0030   -1.1620 N   0  0  0  0  0  0  0  0  0  0  0  0
    9.4060   -4.3720   -0.5810 C   0  0  0  0  0  2  0  0  0  0  0  0
   10.1030   -3.4870    0.1660 C   0  0  0  0  0  0  0  0  0  0  0  0
    9.8990   -2.8790    1.2520 O   0  0  0  0  0  0  0  0  0  0  0  0
    8.0520   -4.9860   -0.3360 C   0  0  0  0  0  0  0  0  0  0  0  0
    7.1510   -5.1070   -1.1630 O   0  0  0  0  0  0  0  0  0  0  0  0
    7.3520   -4.6690    1.9880 O   0  0  0  0  0  1  0  0  0  0  0  0
    7.7350   -5.5080    1.1020 C   0  0  0  0  0  0  0  0  0  0  0  0
    7.8810   -6.7640    1.3120 O   0  0  0  0  0  0  0  0  0  0  0  0
   10.4650   -1.1030   -1.5490 C   0  0  0  0  0  2  0  0  0  0  0  0
   10.4450    0.2040   -0.7770 C   0  0  0  0  0  0  0  0  0  0  0  0
   11.1290    1.3300   -1.2630 C   0  0  0  0  0  3  0  0  0  0  0  0
   11.1110    2.5330   -0.5530 C   0  0  0  0  0  3  0  0  0  0  0  0
   10.4090    2.6200    0.6480 C   0  0  0  0  0  3  0  0  0  0  0  0
    9.7310    1.5050    1.1310 C   0  0  0  0  0  0  0  0  0  0  0  0
    9.0610    1.5990    2.2880 F   0  0  0  0  0  0  0  0  0  0  0  0
    9.7400    0.3020    0.4330 C   0  0  0  0  0  3  0  0  0  0  0  0
  1  2  2  0  0  0  0
  1  7  1  0  0  0  0
  3  2  1  0  0  0  0
  4  5  1  0  0  0  0
  4  3  2  0  0  0  0
  5  1  1  0  0  0  0
  6  9  1  0  0  0  0
  6  7  1  0  0  0  0
  7  8  2  0  0  0  0
  9 12  1  0  0  0  0
 10  9  2  0  0  0  0
 12 13  2  0  0  0  0
 12 11  1  0  0  0  0
 14  5  1  0  0  0  0
 14 15  1  0  0  0  0
 15 21  1  0  0  0  0
 16 15  2  0  0  0  0
 16 17  1  0  0  0  0
 17 18  2  0  0  0  0
 18 19  1  0  0  0  0
 19 20  1  0  0  0  0
 21 19  2  0  0  0  0
M  END
>  <minimizedAffinity>
-7.01489019

$$$$
