
 OpenBabel09122222393D

 21 22  0  0  0  0  0  0  0  0999 V2000
    8.7830   -3.7820    1.0030 C   0  0  0  0  0  0  0  0  0  0  0  0
    8.3830   -3.0350    2.0990 C   0  0  0  0  0  3  0  0  0  0  0  0
    9.3850   -2.0780    2.3760 C   0  0  0  0  0  3  0  0  0  0  0  0
   10.3810   -2.2500    1.4400 C   0  0  0  0  0  3  0  0  0  0  0  0
   10.0000   -3.2620    0.5810 N   0  0  0  0  0  0  0  0  0  0  0  0
    7.4330   -5.6970    1.0920 C   0  0  0  0  0  2  0  0  0  0  0  0
    8.1560   -4.8710    0.3030 C   0  0  0  0  0  0  0  0  0  0  0  0
    8.4200   -4.8180   -0.9280 O   0  0  0  0  0  0  0  0  0  0  0  0
    6.6250   -6.9160    0.7290 C   0  0  0  0  0  0  0  0  0  0  0  0
    6.7070   -8.0230    1.2580 O   0  0  0  0  0  0  0  0  0  0  0  0
    4.8590   -5.7460   -0.4970 O   0  0  0  0  0  1  0  0  0  0  0  0
    5.5950   -6.7910   -0.4380 C   0  0  0  0  0  0  0  0  0  0  0  0
    5.5460   -7.7560   -1.2800 O   0  0  0  0  0  0  0  0  0  0  0  0
   10.7700   -3.7810   -0.5510 C   0  0  0  0  0  2  0  0  0  0  0  0
   11.5990   -2.7280   -1.2640 C   0  0  0  0  0  0  0  0  0  0  0  0
   12.9980   -2.8440   -1.3270 C   0  0  0  0  0  3  0  0  0  0  0  0
   13.7620   -1.8760   -1.9820 C   0  0  0  0  0  3  0  0  0  0  0  0
   13.1350   -0.7840   -2.5800 C   0  0  0  0  0  3  0  0  0  0  0  0
   11.7500   -0.6680   -2.5180 C   0  0  0  0  0  0  0  0  0  0  0  0
   11.1580    0.3870   -3.0960 F   0  0  0  0  0  0  0  0  0  0  0  0
   10.9780   -1.6260   -1.8700 C   0  0  0  0  0  3  0  0  0  0  0  0
  1  2  2  0  0  0  0
  2  3  1  0  0  0  0
  4  3  2  0  0  0  0
  5  1  1  0  0  0  0
  5  4  1  0  0  0  0
  7  1  1  0  0  0  0
  7  6  1  0  0  0  0
  8  7  2  0  0  0  0
  9  6  1  0  0  0  0
  9 10  2  0  0  0  0
 11 12  1  0  0  0  0
 12  9  1  0  0  0  0
 13 12  2  0  0  0  0
 14  5  1  0  0  0  0
 15 14  1  0  0  0  0
 16 15  1  0  0  0  0
 17 16  2  0  0  0  0
 18 19  2  0  0  0  0
 18 17  1  0  0  0  0
 19 21  1  0  0  0  0
 20 19  1  0  0  0  0
 21 15  2  0  0  0  0
M  END
>  <minimizedAffinity>
-6.988451

$$$$
