
 OpenBabel09122222393D

 21 22  0  0  0  0  0  0  0  0999 V2000
   11.7160   -2.8460   -1.2760 C   0  0  0  0  0  0  0  0  0  0  0  0
   12.9490   -3.4560   -1.4460 C   0  0  0  0  0  3  0  0  0  0  0  0
   13.7110   -2.6750   -2.3450 C   0  0  0  0  0  3  0  0  0  0  0  0
   12.9350   -1.5960   -2.7040 C   0  0  0  0  0  3  0  0  0  0  0  0
   11.7350   -1.6780   -2.0260 N   0  0  0  0  0  0  0  0  0  0  0  0
   10.5860   -2.7050    0.7740 C   0  0  0  0  0  2  0  0  0  0  0  0
   10.5710   -3.2040   -0.4820 C   0  0  0  0  0  0  0  0  0  0  0  0
    9.7770   -3.9230   -1.1480 O   0  0  0  0  0  0  0  0  0  0  0  0
    9.5700   -2.8410    1.8780 C   0  0  0  0  0  0  0  0  0  0  0  0
    8.5420   -3.5150    1.8380 O   0  0  0  0  0  0  0  0  0  0  0  0
   10.5520   -2.5690    4.1040 O   0  0  0  0  0  1  0  0  0  0  0  0
    9.8140   -2.0440    3.2000 C   0  0  0  0  0  0  0  0  0  0  0  0
    9.2520   -0.8970    3.3020 O   0  0  0  0  0  0  0  0  0  0  0  0
   10.6110   -0.7450   -2.1250 C   0  0  0  0  0  2  0  0  0  0  0  0
   10.7540    0.4830   -1.2450 C   0  0  0  0  0  0  0  0  0  0  0  0
   11.6630    1.5000   -1.5800 C   0  0  0  0  0  3  0  0  0  0  0  0
   11.7960    2.6310   -0.7710 C   0  0  0  0  0  3  0  0  0  0  0  0
   11.0200    2.7540    0.3800 C   0  0  0  0  0  3  0  0  0  0  0  0
   10.1190    1.7480    0.7140 C   0  0  0  0  0  0  0  0  0  0  0  0
    9.3790    1.8770    1.8240 F   0  0  0  0  0  0  0  0  0  0  0  0
    9.9770    0.6190   -0.0840 C   0  0  0  0  0  3  0  0  0  0  0  0
  1  7  1  0  0  0  0
  2  1  2  0  0  0  0
  3  2  1  0  0  0  0
  4  3  2  0  0  0  0
  4  5  1  0  0  0  0
  5  1  1  0  0  0  0
  6  9  1  0  0  0  0
  7  6  1  0  0  0  0
  8  7  2  0  0  0  0
  9 12  1  0  0  0  0
 10  9  2  0  0  0  0
 12 13  2  0  0  0  0
 12 11  1  0  0  0  0
 14  5  1  0  0  0  0
 14 15  1  0  0  0  0
 15 21  1  0  0  0  0
 16 15  2  0  0  0  0
 16 17  1  0  0  0  0
 17 18  2  0  0  0  0
 18 19  1  0  0  0  0
 19 20  1  0  0  0  0
 21 19  2  0  0  0  0
M  END
>  <minimizedAffinity>
-7.30214834

$$$$
