
 OpenBabel09122222393D

 21 22  0  0  0  0  0  0  0  0999 V2000
    9.9270   -2.9210    0.6550 C   0  0  0  0  0  0  0  0  0  0  0  0
   10.0170   -2.3020    1.8920 C   0  0  0  0  0  3  0  0  0  0  0  0
    8.9750   -2.7930    2.7120 C   0  0  0  0  0  3  0  0  0  0  0  0
    8.2680   -3.7090    1.9660 C   0  0  0  0  0  3  0  0  0  0  0  0
    8.8680   -3.8160    0.7270 N   0  0  0  0  0  0  0  0  0  0  0  0
   10.6370   -1.5940   -1.1430 C   0  0  0  0  0  2  0  0  0  0  0  0
   10.7220   -2.7990   -0.5380 C   0  0  0  0  0  0  0  0  0  0  0  0
   11.3450   -3.8710   -0.7660 O   0  0  0  0  0  0  0  0  0  0  0  0
   11.3270   -1.0860   -2.3830 C   0  0  0  0  0  0  0  0  0  0  0  0
   10.7780   -0.5970   -3.3690 O   0  0  0  0  0  0  0  0  0  0  0  0
   13.4010   -2.2820   -2.8920 O   0  0  0  0  0  0  0  0  0  0  0  0
   12.8830   -1.1990   -2.4520 C   0  0  0  0  0  0  0  0  0  0  0  0
   13.5590   -0.1840   -2.0560 O   0  0  0  0  0  1  0  0  0  0  0  0
    8.4320   -4.6670   -0.3830 C   0  0  0  0  0  2  0  0  0  0  0  0
    7.3780   -5.6870    0.0030 C   0  0  0  0  0  0  0  0  0  0  0  0
    6.1260   -5.6970   -0.6350 C   0  0  0  0  0  3  0  0  0  0  0  0
    5.1540   -6.6350   -0.2800 C   0  0  0  0  0  3  0  0  0  0  0  0
    5.4260   -7.5720    0.7150 C   0  0  0  0  0  3  0  0  0  0  0  0
    6.6650   -7.5640    1.3480 C   0  0  0  0  0  0  0  0  0  0  0  0
    6.9140   -8.4690    2.3060 F   0  0  0  0  0  0  0  0  0  0  0  0
    7.6400   -6.6360    1.0030 C   0  0  0  0  0  3  0  0  0  0  0  0
  1  5  1  0  0  0  0
  1  2  2  0  0  0  0
  2  3  1  0  0  0  0
  4  3  2  0  0  0  0
  5  4  1  0  0  0  0
  6  7  1  0  0  0  0
  7  1  1  0  0  0  0
  8  7  2  0  0  0  0
  9  6  1  0  0  0  0
 10  9  2  0  0  0  0
 11 12  2  0  0  0  0
 12  9  1  0  0  0  0
 12 13  1  0  0  0  0
 14 15  1  0  0  0  0
 14  5  1  0  0  0  0
 15 21  1  0  0  0  0
 16 17  1  0  0  0  0
 16 15  2  0  0  0  0
 17 18  2  0  0  0  0
 18 19  1  0  0  0  0
 19 20  1  0  0  0  0
 21 19  2  0  0  0  0
M  END
>  <minimizedAffinity>
-7.43715763

$$$$
