
 OpenBabel09122218343D

 21 22  0  0  0  0  0  0  0  0999 V2000
    9.9270   -2.9210    0.6550 C   0  0  0  0  0  0  0  0  0  0  0  0
   10.0170   -2.3020    1.8920 C   0  0  0  0  0  3  0  0  0  0  0  0
    8.9750   -2.7930    2.7120 C   0  0  0  0  0  3  0  0  0  0  0  0
    8.2680   -3.7090    1.9660 C   0  0  0  0  0  3  0  0  0  0  0  0
    8.8680   -3.8160    0.7270 N   0  0  0  0  0  0  0  0  0  0  0  0
   10.6370   -1.5940   -1.1430 C   0  0  0  0  0  2  0  0  0  0  0  0
   10.7220   -2.7990   -0.5380 C   0  0  0  0  0  0  0  0  0  0  0  0
   11.3450   -3.8710   -0.7660 O   0  0  0  0  0  0  0  0  0  0  0  0
   11.3270   -1.0860   -2.3830 C   0  0  0  0  0  0  0  0  0  0  0  0
   10.7780   -0.5970   -3.3690 O   0  0  0  0  0  0  0  0  0  0  0  0
   13.4010   -2.2820   -2.8920 O   0  0  0  0  0  0  0  0  0  0  0  0
   12.8830   -1.1990   -2.4520 C   0  0  0  0  0  0  0  0  0  0  0  0
   13.5590   -0.1840   -2.0560 O   0  0  0  0  0  1  0  0  0  0  0  0
    8.4320   -4.6670   -0.3830 C   0  0  0  0  0  2  0  0  0  0  0  0
    7.3780   -5.6870    0.0030 C   0  0  0  0  0  0  0  0  0  0  0  0
    6.1260   -5.6970   -0.6350 C   0  0  0  0  0  3  0  0  0  0  0  0
    5.1540   -6.6350   -0.2800 C   0  0  0  0  0  3  0  0  0  0  0  0
    5.4260   -7.5720    0.7150 C   0  0  0  0  0  3  0  0  0  0  0  0
    6.6650   -7.5640    1.3480 C   0  0  0  0  0  0  0  0  0  0  0  0
    6.9140   -8.4690    2.3060 F   0  0  0  0  0  0  0  0  0  0  0  0
    7.6400   -6.6360    1.0030 C   0  0  0  0  0  3  0  0  0  0  0  0
  1  5  1  0  0  0  0
  1  2  2  0  0  0  0
  2  3  1  0  0  0  0
  4  3  2  0  0  0  0
  5  4  1  0  0  0  0
  6  7  1  0  0  0  0
  7  1  1  0  0  0  0
  8  7  2  0  0  0  0
  9  6  1  0  0  0  0
 10  9  2  0  0  0  0
 11 12  2  0  0  0  0
 12  9  1  0  0  0  0
 12 13  1  0  0  0  0
 14 15  1  0  0  0  0
 14  5  1  0  0  0  0
 15 21  1  0  0  0  0
 16 17  1  0  0  0  0
 16 15  2  0  0  0  0
 17 18  2  0  0  0  0
 18 19  1  0  0  0  0
 19 20  1  0  0  0  0
 21 19  2  0  0  0  0
M  END
>  <minimizedAffinity>
-7.43715763

$$$$

 OpenBabel09122218343D

 21 22  0  0  0  0  0  0  0  0999 V2000
    9.9120   -2.9420    0.7310 C   0  0  0  0  0  0  0  0  0  0  0  0
   10.0240   -2.3220    1.9640 C   0  0  0  0  0  3  0  0  0  0  0  0
    8.9840   -2.7950    2.7970 C   0  0  0  0  0  3  0  0  0  0  0  0
    8.2560   -3.7030    2.0610 C   0  0  0  0  0  3  0  0  0  0  0  0
    8.8420   -3.8230    0.8160 N   0  0  0  0  0  0  0  0  0  0  0  0
   10.6090   -1.6370   -1.0880 C   0  0  0  0  0  2  0  0  0  0  0  0
   10.6960   -2.8360   -0.4710 C   0  0  0  0  0  0  0  0  0  0  0  0
   11.3140   -3.9120   -0.6940 O   0  0  0  0  0  0  0  0  0  0  0  0
   11.2890   -1.1440   -2.3400 C   0  0  0  0  0  0  0  0  0  0  0  0
   10.7350   -0.6420   -3.3160 O   0  0  0  0  0  0  0  0  0  0  0  0
   13.3270   -2.3790   -2.9020 O   0  0  0  0  0  0  0  0  0  0  0  0
   12.8420   -1.2910   -2.4350 C   0  0  0  0  0  0  0  0  0  0  0  0
   13.5470   -0.3000   -2.0330 O   0  0  0  0  0  1  0  0  0  0  0  0
    8.3820   -4.6700   -0.2870 C   0  0  0  0  0  2  0  0  0  0  0  0
    7.3680   -5.7200    0.1280 C   0  0  0  0  0  0  0  0  0  0  0  0
    7.6850   -6.6690    1.1140 C   0  0  0  0  0  3  0  0  0  0  0  0
    6.7530   -7.6360    1.4960 C   0  0  0  0  0  3  0  0  0  0  0  0
    5.4950   -7.6630    0.8950 C   0  0  0  0  0  3  0  0  0  0  0  0
    5.1800   -6.7240   -0.0820 C   0  0  0  0  0  0  0  0  0  0  0  0
    3.9680   -6.7610   -0.6540 F   0  0  0  0  0  0  0  0  0  0  0  0
    6.0990   -5.7560   -0.4700 C   0  0  0  0  0  3  0  0  0  0  0  0
  1  5  1  0  0  0  0
  1  2  2  0  0  0  0
  2  3  1  0  0  0  0
  4  3  2  0  0  0  0
  5  4  1  0  0  0  0
  6  7  1  0  0  0  0
  7  1  1  0  0  0  0
  8  7  2  0  0  0  0
  9  6  1  0  0  0  0
 10  9  2  0  0  0  0
 11 12  2  0  0  0  0
 12  9  1  0  0  0  0
 12 13  1  0  0  0  0
 14 15  1  0  0  0  0
 14  5  1  0  0  0  0
 15 16  1  0  0  0  0
 16 17  2  0  0  0  0
 18 17  1  0  0  0  0
 19 18  2  0  0  0  0
 20 19  1  0  0  0  0
 21 19  1  0  0  0  0
 21 15  2  0  0  0  0
M  END
>  <minimizedAffinity>
-7.3326354

$$$$

 OpenBabel09122218343D

 21 22  0  0  0  0  0  0  0  0999 V2000
   11.7160   -2.8460   -1.2760 C   0  0  0  0  0  0  0  0  0  0  0  0
   12.9490   -3.4560   -1.4460 C   0  0  0  0  0  3  0  0  0  0  0  0
   13.7110   -2.6750   -2.3450 C   0  0  0  0  0  3  0  0  0  0  0  0
   12.9350   -1.5960   -2.7040 C   0  0  0  0  0  3  0  0  0  0  0  0
   11.7350   -1.6780   -2.0260 N   0  0  0  0  0  0  0  0  0  0  0  0
   10.5860   -2.7050    0.7740 C   0  0  0  0  0  2  0  0  0  0  0  0
   10.5710   -3.2040   -0.4820 C   0  0  0  0  0  0  0  0  0  0  0  0
    9.7770   -3.9230   -1.1480 O   0  0  0  0  0  0  0  0  0  0  0  0
    9.5700   -2.8410    1.8780 C   0  0  0  0  0  0  0  0  0  0  0  0
    8.5420   -3.5150    1.8380 O   0  0  0  0  0  0  0  0  0  0  0  0
   10.5520   -2.5690    4.1040 O   0  0  0  0  0  1  0  0  0  0  0  0
    9.8140   -2.0440    3.2000 C   0  0  0  0  0  0  0  0  0  0  0  0
    9.2520   -0.8970    3.3020 O   0  0  0  0  0  0  0  0  0  0  0  0
   10.6110   -0.7450   -2.1250 C   0  0  0  0  0  2  0  0  0  0  0  0
   10.7540    0.4830   -1.2450 C   0  0  0  0  0  0  0  0  0  0  0  0
   11.6630    1.5000   -1.5800 C   0  0  0  0  0  3  0  0  0  0  0  0
   11.7960    2.6310   -0.7710 C   0  0  0  0  0  3  0  0  0  0  0  0
   11.0200    2.7540    0.3800 C   0  0  0  0  0  3  0  0  0  0  0  0
   10.1190    1.7480    0.7140 C   0  0  0  0  0  0  0  0  0  0  0  0
    9.3790    1.8770    1.8240 F   0  0  0  0  0  0  0  0  0  0  0  0
    9.9770    0.6190   -0.0840 C   0  0  0  0  0  3  0  0  0  0  0  0
  1  7  1  0  0  0  0
  2  1  2  0  0  0  0
  3  2  1  0  0  0  0
  4  3  2  0  0  0  0
  4  5  1  0  0  0  0
  5  1  1  0  0  0  0
  6  9  1  0  0  0  0
  7  6  1  0  0  0  0
  8  7  2  0  0  0  0
  9 12  1  0  0  0  0
 10  9  2  0  0  0  0
 12 13  2  0  0  0  0
 12 11  1  0  0  0  0
 14  5  1  0  0  0  0
 14 15  1  0  0  0  0
 15 21  1  0  0  0  0
 16 15  2  0  0  0  0
 16 17  1  0  0  0  0
 17 18  2  0  0  0  0
 18 19  1  0  0  0  0
 19 20  1  0  0  0  0
 21 19  2  0  0  0  0
M  END
>  <minimizedAffinity>
-7.30214834

$$$$

 OpenBabel09122218343D

 21 22  0  0  0  0  0  0  0  0999 V2000
   11.6300   -2.7970   -1.2220 C   0  0  0  0  0  0  0  0  0  0  0  0
   12.8710   -3.3830   -1.4090 C   0  0  0  0  0  3  0  0  0  0  0  0
   13.6110   -2.5820   -2.3080 C   0  0  0  0  0  3  0  0  0  0  0  0
   12.8130   -1.5130   -2.6520 C   0  0  0  0  0  3  0  0  0  0  0  0
   11.6210   -1.6220   -1.9630 N   0  0  0  0  0  0  0  0  0  0  0  0
   10.5270   -2.7080    0.8450 C   0  0  0  0  0  2  0  0  0  0  0  0
   10.4990   -3.1810   -0.4210 C   0  0  0  0  0  0  0  0  0  0  0  0
    9.7010   -3.8920   -1.0910 O   0  0  0  0  0  0  0  0  0  0  0  0
    9.5270   -2.8760    1.9600 C   0  0  0  0  0  0  0  0  0  0  0  0
    8.5090   -3.5640    1.9230 O   0  0  0  0  0  0  0  0  0  0  0  0
    9.1950   -0.9700    3.4600 O   0  0  0  0  0  0  0  0  0  0  0  0
    9.7770   -2.0960    3.2910 C   0  0  0  0  0  0  0  0  0  0  0  0
   10.5640   -2.6390    4.1450 O   0  0  0  0  0  1  0  0  0  0  0  0
   10.4800   -0.7070   -2.0440 C   0  0  0  0  0  2  0  0  0  0  0  0
   10.5680    0.4690   -1.0890 C   0  0  0  0  0  0  0  0  0  0  0  0
    9.8490    0.4630    0.1180 C   0  0  0  0  0  3  0  0  0  0  0  0
    9.9280    1.5450    0.9980 C   0  0  0  0  0  3  0  0  0  0  0  0
   10.7280    2.6420    0.6780 C   0  0  0  0  0  3  0  0  0  0  0  0
   11.4400    2.6490   -0.5170 C   0  0  0  0  0  0  0  0  0  0  0  0
   12.2030    3.7100   -0.8150 F   0  0  0  0  0  0  0  0  0  0  0  0
   11.3700    1.5770   -1.4000 C   0  0  0  0  0  3  0  0  0  0  0  0
  1  7  1  0  0  0  0
  2  1  2  0  0  0  0
  3  2  1  0  0  0  0
  4  3  2  0  0  0  0
  4  5  1  0  0  0  0
  5  1  1  0  0  0  0
  6  9  1  0  0  0  0
  7  6  1  0  0  0  0
  8  7  2  0  0  0  0
  9 12  1  0  0  0  0
 10  9  2  0  0  0  0
 12 11  2  0  0  0  0
 12 13  1  0  0  0  0
 14  5  1  0  0  0  0
 14 15  1  0  0  0  0
 15 16  1  0  0  0  0
 16 17  2  0  0  0  0
 18 17  1  0  0  0  0
 19 18  2  0  0  0  0
 20 19  1  0  0  0  0
 21 15  2  0  0  0  0
 21 19  1  0  0  0  0
M  END
>  <minimizedAffinity>
-7.25850248

$$$$

 OpenBabel09122218343D

 21 22  0  0  0  0  0  0  0  0999 V2000
    6.0650   -6.7800    1.4230 C   0  0  0  0  0  0  0  0  0  0  0  0
    6.3140   -8.0790    1.8350 C   0  0  0  0  0  3  0  0  0  0  0  0
    5.4520   -8.3760    2.9150 C   0  0  0  0  0  3  0  0  0  0  0  0
    4.6830   -7.2560    3.1420 C   0  0  0  0  0  3  0  0  0  0  0  0
    5.0280   -6.2960    2.2110 N   0  0  0  0  0  0  0  0  0  0  0  0
    7.7930   -5.3560    0.7260 C   0  0  0  0  0  2  0  0  0  0  0  0
    6.6440   -5.9770    0.3790 C   0  0  0  0  0  0  0  0  0  0  0  0
    5.9370   -6.0290   -0.6640 O   0  0  0  0  0  0  0  0  0  0  0  0
    8.6900   -4.4610   -0.0890 C   0  0  0  0  0  0  0  0  0  0  0  0
    8.9870   -4.6170   -1.2720 O   0  0  0  0  0  0  0  0  0  0  0  0
    9.0260   -2.9920    1.8400 O   0  0  0  0  0  1  0  0  0  0  0  0
    9.3300   -3.2240    0.6190 C   0  0  0  0  0  0  0  0  0  0  0  0
   10.1300   -2.5030   -0.0750 O   0  0  0  0  0  0  0  0  0  0  0  0
    4.4680   -4.9480    2.0990 C   0  0  0  0  0  2  0  0  0  0  0  0
    4.4340   -4.1870    3.4120 C   0  0  0  0  0  0  0  0  0  0  0  0
    5.5530   -4.1780    4.2610 C   0  0  0  0  0  3  0  0  0  0  0  0
    5.5220   -3.4790    5.4700 C   0  0  0  0  0  3  0  0  0  0  0  0
    4.3730   -2.7820    5.8390 C   0  0  0  0  0  3  0  0  0  0  0  0
    3.2640   -2.7900    4.9990 C   0  0  0  0  0  0  0  0  0  0  0  0
    2.1630   -2.1180    5.3660 F   0  0  0  0  0  0  0  0  0  0  0  0
    3.2820   -3.4820    3.7930 C   0  0  0  0  0  3  0  0  0  0  0  0
  1  2  2  0  0  0  0
  1  5  1  0  0  0  0
  2  3  1  0  0  0  0
  3  4  2  0  0  0  0
  5  4  1  0  0  0  0
  7  6  1  0  0  0  0
  7  1  1  0  0  0  0
  8  7  2  0  0  0  0
  9 12  1  0  0  0  0
  9  6  1  0  0  0  0
 10  9  2  0  0  0  0
 12 11  1  0  0  0  0
 13 12  2  0  0  0  0
 14  5  1  0  0  0  0
 14 15  1  0  0  0  0
 15 21  2  0  0  0  0
 15 16  1  0  0  0  0
 16 17  2  0  0  0  0
 17 18  1  0  0  0  0
 19 20  1  0  0  0  0
 19 18  2  0  0  0  0
 21 19  1  0  0  0  0
M  END
>  <minimizedAffinity>
-7.18139601

$$$$

 OpenBabel09122218343D

 21 22  0  0  0  0  0  0  0  0999 V2000
    5.7870   -7.3000    0.8440 C   0  0  0  0  0  0  0  0  0  0  0  0
    5.2710   -7.6780   -0.3850 C   0  0  0  0  0  3  0  0  0  0  0  0
    3.9790   -8.2140   -0.1800 C   0  0  0  0  0  3  0  0  0  0  0  0
    3.7220   -8.1470    1.1720 C   0  0  0  0  0  3  0  0  0  0  0  0
    4.8060   -7.5580    1.7920 N   0  0  0  0  0  0  0  0  0  0  0  0
    7.1110   -5.3720    1.0090 C   0  0  0  0  0  2  0  0  0  0  0  0
    7.0440   -6.7060    1.2140 C   0  0  0  0  0  0  0  0  0  0  0  0
    7.8320   -7.5810    1.6660 O   0  0  0  0  0  0  0  0  0  0  0  0
    8.2360   -4.4080    1.2880 C   0  0  0  0  0  0  0  0  0  0  0  0
    8.4780   -3.8710    2.3670 O   0  0  0  0  0  0  0  0  0  0  0  0
   10.1560   -3.2280    0.3340 O   0  0  0  0  0  1  0  0  0  0  0  0
    9.1840   -4.0270    0.1060 C   0  0  0  0  0  0  0  0  0  0  0  0
    8.9250   -4.5430   -1.0380 O   0  0  0  0  0  0  0  0  0  0  0  0
    4.9600   -7.3060    3.2260 C   0  0  0  0  0  2  0  0  0  0  0  0
    4.0500   -6.2150    3.7600 C   0  0  0  0  0  0  0  0  0  0  0  0
    3.0160   -6.5240    4.6590 C   0  0  0  0  0  3  0  0  0  0  0  0
    2.1780   -5.5210    5.1510 C   0  0  0  0  0  3  0  0  0  0  0  0
    2.3670   -4.2000    4.7470 C   0  0  0  0  0  3  0  0  0  0  0  0
    3.3900   -3.8930    3.8560 C   0  0  0  0  0  0  0  0  0  0  0  0
    3.5610   -2.6190    3.4740 F   0  0  0  0  0  0  0  0  0  0  0  0
    4.2320   -4.8820    3.3610 C   0  0  0  0  0  3  0  0  0  0  0  0
  1  7  1  0  0  0  0
  1  5  1  0  0  0  0
  2  3  1  0  0  0  0
  2  1  2  0  0  0  0
  3  4  2  0  0  0  0
  4  5  1  0  0  0  0
  5 14  1  0  0  0  0
  6  7  1  0  0  0  0
  6  9  1  0  0  0  0
  7  8  2  0  0  0  0
  9 10  2  0  0  0  0
 12 11  1  0  0  0  0
 12  9  1  0  0  0  0
 13 12  2  0  0  0  0
 14 15  1  0  0  0  0
 15 16  1  0  0  0  0
 16 17  2  0  0  0  0
 18 17  1  0  0  0  0
 19 18  2  0  0  0  0
 20 19  1  0  0  0  0
 21 15  2  0  0  0  0
 21 19  1  0  0  0  0
M  END
>  <minimizedAffinity>
-7.13775158

$$$$

 OpenBabel09122218343D

 21 22  0  0  0  0  0  0  0  0999 V2000
   11.3890   -3.1360   -0.3760 C   0  0  0  0  0  0  0  0  0  0  0  0
   12.6380   -3.7210   -0.2440 C   0  0  0  0  0  3  0  0  0  0  0  0
   13.5660   -2.9630   -0.9930 C   0  0  0  0  0  3  0  0  0  0  0  0
   12.8720   -1.9210   -1.5650 C   0  0  0  0  0  3  0  0  0  0  0  0
   11.5540   -2.0030   -1.1620 N   0  0  0  0  0  0  0  0  0  0  0  0
    9.4060   -4.3720   -0.5810 C   0  0  0  0  0  2  0  0  0  0  0  0
   10.1030   -3.4870    0.1660 C   0  0  0  0  0  0  0  0  0  0  0  0
    9.8990   -2.8790    1.2520 O   0  0  0  0  0  0  0  0  0  0  0  0
    8.0520   -4.9860   -0.3360 C   0  0  0  0  0  0  0  0  0  0  0  0
    7.1510   -5.1070   -1.1630 O   0  0  0  0  0  0  0  0  0  0  0  0
    7.3520   -4.6690    1.9880 O   0  0  0  0  0  1  0  0  0  0  0  0
    7.7350   -5.5080    1.1020 C   0  0  0  0  0  0  0  0  0  0  0  0
    7.8810   -6.7640    1.3120 O   0  0  0  0  0  0  0  0  0  0  0  0
   10.4650   -1.1030   -1.5490 C   0  0  0  0  0  2  0  0  0  0  0  0
   10.4450    0.2040   -0.7770 C   0  0  0  0  0  0  0  0  0  0  0  0
   11.1290    1.3300   -1.2630 C   0  0  0  0  0  3  0  0  0  0  0  0
   11.1110    2.5330   -0.5530 C   0  0  0  0  0  3  0  0  0  0  0  0
   10.4090    2.6200    0.6480 C   0  0  0  0  0  3  0  0  0  0  0  0
    9.7310    1.5050    1.1310 C   0  0  0  0  0  0  0  0  0  0  0  0
    9.0610    1.5990    2.2880 F   0  0  0  0  0  0  0  0  0  0  0  0
    9.7400    0.3020    0.4330 C   0  0  0  0  0  3  0  0  0  0  0  0
  1  2  2  0  0  0  0
  1  7  1  0  0  0  0
  3  2  1  0  0  0  0
  4  5  1  0  0  0  0
  4  3  2  0  0  0  0
  5  1  1  0  0  0  0
  6  9  1  0  0  0  0
  6  7  1  0  0  0  0
  7  8  2  0  0  0  0
  9 12  1  0  0  0  0
 10  9  2  0  0  0  0
 12 13  2  0  0  0  0
 12 11  1  0  0  0  0
 14  5  1  0  0  0  0
 14 15  1  0  0  0  0
 15 21  1  0  0  0  0
 16 15  2  0  0  0  0
 16 17  1  0  0  0  0
 17 18  2  0  0  0  0
 18 19  1  0  0  0  0
 19 20  1  0  0  0  0
 21 19  2  0  0  0  0
M  END
>  <minimizedAffinity>
-7.01489019

$$$$

 OpenBabel09122218343D

 21 22  0  0  0  0  0  0  0  0999 V2000
    8.7830   -3.7820    1.0030 C   0  0  0  0  0  0  0  0  0  0  0  0
    8.3830   -3.0350    2.0990 C   0  0  0  0  0  3  0  0  0  0  0  0
    9.3850   -2.0780    2.3760 C   0  0  0  0  0  3  0  0  0  0  0  0
   10.3810   -2.2500    1.4400 C   0  0  0  0  0  3  0  0  0  0  0  0
   10.0000   -3.2620    0.5810 N   0  0  0  0  0  0  0  0  0  0  0  0
    7.4330   -5.6970    1.0920 C   0  0  0  0  0  2  0  0  0  0  0  0
    8.1560   -4.8710    0.3030 C   0  0  0  0  0  0  0  0  0  0  0  0
    8.4200   -4.8180   -0.9280 O   0  0  0  0  0  0  0  0  0  0  0  0
    6.6250   -6.9160    0.7290 C   0  0  0  0  0  0  0  0  0  0  0  0
    6.7070   -8.0230    1.2580 O   0  0  0  0  0  0  0  0  0  0  0  0
    4.8590   -5.7460   -0.4970 O   0  0  0  0  0  1  0  0  0  0  0  0
    5.5950   -6.7910   -0.4380 C   0  0  0  0  0  0  0  0  0  0  0  0
    5.5460   -7.7560   -1.2800 O   0  0  0  0  0  0  0  0  0  0  0  0
   10.7700   -3.7810   -0.5510 C   0  0  0  0  0  2  0  0  0  0  0  0
   11.5990   -2.7280   -1.2640 C   0  0  0  0  0  0  0  0  0  0  0  0
   12.9980   -2.8440   -1.3270 C   0  0  0  0  0  3  0  0  0  0  0  0
   13.7620   -1.8760   -1.9820 C   0  0  0  0  0  3  0  0  0  0  0  0
   13.1350   -0.7840   -2.5800 C   0  0  0  0  0  3  0  0  0  0  0  0
   11.7500   -0.6680   -2.5180 C   0  0  0  0  0  0  0  0  0  0  0  0
   11.1580    0.3870   -3.0960 F   0  0  0  0  0  0  0  0  0  0  0  0
   10.9780   -1.6260   -1.8700 C   0  0  0  0  0  3  0  0  0  0  0  0
  1  2  2  0  0  0  0
  2  3  1  0  0  0  0
  4  3  2  0  0  0  0
  5  1  1  0  0  0  0
  5  4  1  0  0  0  0
  7  1  1  0  0  0  0
  7  6  1  0  0  0  0
  8  7  2  0  0  0  0
  9  6  1  0  0  0  0
  9 10  2  0  0  0  0
 11 12  1  0  0  0  0
 12  9  1  0  0  0  0
 13 12  2  0  0  0  0
 14  5  1  0  0  0  0
 15 14  1  0  0  0  0
 16 15  1  0  0  0  0
 17 16  2  0  0  0  0
 18 19  2  0  0  0  0
 18 17  1  0  0  0  0
 19 21  1  0  0  0  0
 20 19  1  0  0  0  0
 21 15  2  0  0  0  0
M  END
>  <minimizedAffinity>
-6.988451

$$$$

 OpenBabel09122218343D

 21 22  0  0  0  0  0  0  0  0999 V2000
    5.3670   -6.0310    1.3600 C   0  0  0  0  0  0  0  0  0  0  0  0
    4.3900   -6.2160    0.3960 C   0  0  0  0  0  3  0  0  0  0  0  0
    5.0160   -6.2490   -0.8720 C   0  0  0  0  0  3  0  0  0  0  0  0
    6.3670   -6.0900   -0.6610 C   0  0  0  0  0  3  0  0  0  0  0  0
    6.5880   -5.9950    0.6990 N   0  0  0  0  0  0  0  0  0  0  0  0
    5.0420   -4.6780    3.2480 C   0  0  0  0  0  2  0  0  0  0  0  0
    5.2930   -5.9260    2.7930 C   0  0  0  0  0  0  0  0  0  0  0  0
    5.4790   -7.0510    3.3300 O   0  0  0  0  0  0  0  0  0  0  0  0
    4.8740   -4.1820    4.6610 C   0  0  0  0  0  0  0  0  0  0  0  0
    5.5340   -4.5350    5.6360 O   0  0  0  0  0  0  0  0  0  0  0  0
    3.9580   -2.2320    5.8230 O   0  0  0  0  0  1  0  0  0  0  0  0
    3.7500   -3.1330    4.9390 C   0  0  0  0  0  0  0  0  0  0  0  0
    2.6710   -3.2400    4.2570 O   0  0  0  0  0  0  0  0  0  0  0  0
    7.8790   -5.8030    1.3620 C   0  0  0  0  0  2  0  0  0  0  0  0
    8.4480   -4.4040    1.2050 C   0  0  0  0  0  0  0  0  0  0  0  0
    8.2400   -3.4340    2.2000 C   0  0  0  0  0  3  0  0  0  0  0  0
    8.7630   -2.1460    2.0570 C   0  0  0  0  0  3  0  0  0  0  0  0
    9.4970   -1.8190    0.9180 C   0  0  0  0  0  3  0  0  0  0  0  0
    9.7030   -2.7780   -0.0670 C   0  0  0  0  0  0  0  0  0  0  0  0
   10.4100   -2.4510   -1.1590 F   0  0  0  0  0  0  0  0  0  0  0  0
    9.1900   -4.0640    0.0640 C   0  0  0  0  0  3  0  0  0  0  0  0
  1  7  1  0  0  0  0
  2  1  2  0  0  0  0
  3  4  2  0  0  0  0
  3  2  1  0  0  0  0
  4  5  1  0  0  0  0
  5  1  1  0  0  0  0
  5 14  1  0  0  0  0
  6  9  1  0  0  0  0
  7  6  1  0  0  0  0
  7  8  2  0  0  0  0
  9 12  1  0  0  0  0
  9 10  2  0  0  0  0
 12 11  1  0  0  0  0
 13 12  2  0  0  0  0
 15 14  1  0  0  0  0
 15 16  1  0  0  0  0
 17 16  2  0  0  0  0
 18 17  1  0  0  0  0
 19 21  1  0  0  0  0
 19 18  2  0  0  0  0
 20 19  1  0  0  0  0
 21 15  2  0  0  0  0
M  END
>  <minimizedAffinity>
-6.97608709

$$$$

 OpenBabel09122218343D

 21 22  0  0  0  0  0  0  0  0999 V2000
   11.6960   -2.8310   -0.4510 C   0  0  0  0  0  0  0  0  0  0  0  0
   12.9870   -3.3000   -0.6340 C   0  0  0  0  0  3  0  0  0  0  0  0
   13.6050   -2.5200   -1.6380 C   0  0  0  0  0  3  0  0  0  0  0  0
   12.6850   -1.5820   -2.0480 C   0  0  0  0  0  3  0  0  0  0  0  0
   11.5350   -1.7450   -1.3020 N   0  0  0  0  0  0  0  0  0  0  0  0
    9.6730   -3.9830   -0.1640 C   0  0  0  0  0  2  0  0  0  0  0  0
   10.6400   -3.2490    0.4320 C   0  0  0  0  0  0  0  0  0  0  0  0
   10.8510   -2.8330    1.6030 O   0  0  0  0  0  0  0  0  0  0  0  0
    8.4360   -4.6090    0.4260 C   0  0  0  0  0  0  0  0  0  0  0  0
    8.1640   -4.6890    1.6230 O   0  0  0  0  0  0  0  0  0  0  0  0
    6.5810   -6.1160   -0.1050 O   0  0  0  0  0  1  0  0  0  0  0  0
    7.3950   -5.2380   -0.5550 C   0  0  0  0  0  0  0  0  0  0  0  0
    7.4210   -4.8330   -1.7710 O   0  0  0  0  0  0  0  0  0  0  0  0
   10.2990   -0.9680   -1.4210 C   0  0  0  0  0  2  0  0  0  0  0  0
   10.2660    0.2700   -0.5450 C   0  0  0  0  0  0  0  0  0  0  0  0
    9.5900    0.2550    0.6870 C   0  0  0  0  0  3  0  0  0  0  0  0
    9.5570    1.3940    1.4940 C   0  0  0  0  0  3  0  0  0  0  0  0
   10.2010    2.5580    1.0770 C   0  0  0  0  0  3  0  0  0  0  0  0
   10.8710    2.5750   -0.1420 C   0  0  0  0  0  0  0  0  0  0  0  0
   11.4850    3.7000   -0.5330 F   0  0  0  0  0  0  0  0  0  0  0  0
   10.9110    1.4470   -0.9540 C   0  0  0  0  0  3  0  0  0  0  0  0
  1  7  1  0  0  0  0
  2  1  2  0  0  0  0
  3  2  1  0  0  0  0
  4  3  2  0  0  0  0
  4  5  1  0  0  0  0
  5  1  1  0  0  0  0
  6  9  1  0  0  0  0
  6  7  1  0  0  0  0
  7  8  2  0  0  0  0
  9 10  2  0  0  0  0
 12 11  1  0  0  0  0
 12  9  1  0  0  0  0
 13 12  2  0  0  0  0
 14  5  1  0  0  0  0
 14 15  1  0  0  0  0
 15 16  1  0  0  0  0
 16 17  2  0  0  0  0
 18 17  1  0  0  0  0
 19 18  2  0  0  0  0
 20 19  1  0  0  0  0
 21 15  2  0  0  0  0
 21 19  1  0  0  0  0
M  END
>  <minimizedAffinity>
-6.91806555

$$$$
