
 OpenBabel09122222393D

 21 22  0  0  0  0  0  0  0  0999 V2000
    5.3670   -6.0310    1.3600 C   0  0  0  0  0  0  0  0  0  0  0  0
    4.3900   -6.2160    0.3960 C   0  0  0  0  0  3  0  0  0  0  0  0
    5.0160   -6.2490   -0.8720 C   0  0  0  0  0  3  0  0  0  0  0  0
    6.3670   -6.0900   -0.6610 C   0  0  0  0  0  3  0  0  0  0  0  0
    6.5880   -5.9950    0.6990 N   0  0  0  0  0  0  0  0  0  0  0  0
    5.0420   -4.6780    3.2480 C   0  0  0  0  0  2  0  0  0  0  0  0
    5.2930   -5.9260    2.7930 C   0  0  0  0  0  0  0  0  0  0  0  0
    5.4790   -7.0510    3.3300 O   0  0  0  0  0  0  0  0  0  0  0  0
    4.8740   -4.1820    4.6610 C   0  0  0  0  0  0  0  0  0  0  0  0
    5.5340   -4.5350    5.6360 O   0  0  0  0  0  0  0  0  0  0  0  0
    3.9580   -2.2320    5.8230 O   0  0  0  0  0  1  0  0  0  0  0  0
    3.7500   -3.1330    4.9390 C   0  0  0  0  0  0  0  0  0  0  0  0
    2.6710   -3.2400    4.2570 O   0  0  0  0  0  0  0  0  0  0  0  0
    7.8790   -5.8030    1.3620 C   0  0  0  0  0  2  0  0  0  0  0  0
    8.4480   -4.4040    1.2050 C   0  0  0  0  0  0  0  0  0  0  0  0
    8.2400   -3.4340    2.2000 C   0  0  0  0  0  3  0  0  0  0  0  0
    8.7630   -2.1460    2.0570 C   0  0  0  0  0  3  0  0  0  0  0  0
    9.4970   -1.8190    0.9180 C   0  0  0  0  0  3  0  0  0  0  0  0
    9.7030   -2.7780   -0.0670 C   0  0  0  0  0  0  0  0  0  0  0  0
   10.4100   -2.4510   -1.1590 F   0  0  0  0  0  0  0  0  0  0  0  0
    9.1900   -4.0640    0.0640 C   0  0  0  0  0  3  0  0  0  0  0  0
  1  7  1  0  0  0  0
  2  1  2  0  0  0  0
  3  4  2  0  0  0  0
  3  2  1  0  0  0  0
  4  5  1  0  0  0  0
  5  1  1  0  0  0  0
  5 14  1  0  0  0  0
  6  9  1  0  0  0  0
  7  6  1  0  0  0  0
  7  8  2  0  0  0  0
  9 12  1  0  0  0  0
  9 10  2  0  0  0  0
 12 11  1  0  0  0  0
 13 12  2  0  0  0  0
 15 14  1  0  0  0  0
 15 16  1  0  0  0  0
 17 16  2  0  0  0  0
 18 17  1  0  0  0  0
 19 21  1  0  0  0  0
 19 18  2  0  0  0  0
 20 19  1  0  0  0  0
 21 15  2  0  0  0  0
M  END
>  <minimizedAffinity>
-6.97608709

$$$$
