
 OpenBabel09122222393D

 21 22  0  0  0  0  0  0  0  0999 V2000
   11.6300   -2.7970   -1.2220 C   0  0  0  0  0  0  0  0  0  0  0  0
   12.8710   -3.3830   -1.4090 C   0  0  0  0  0  3  0  0  0  0  0  0
   13.6110   -2.5820   -2.3080 C   0  0  0  0  0  3  0  0  0  0  0  0
   12.8130   -1.5130   -2.6520 C   0  0  0  0  0  3  0  0  0  0  0  0
   11.6210   -1.6220   -1.9630 N   0  0  0  0  0  0  0  0  0  0  0  0
   10.5270   -2.7080    0.8450 C   0  0  0  0  0  2  0  0  0  0  0  0
   10.4990   -3.1810   -0.4210 C   0  0  0  0  0  0  0  0  0  0  0  0
    9.7010   -3.8920   -1.0910 O   0  0  0  0  0  0  0  0  0  0  0  0
    9.5270   -2.8760    1.9600 C   0  0  0  0  0  0  0  0  0  0  0  0
    8.5090   -3.5640    1.9230 O   0  0  0  0  0  0  0  0  0  0  0  0
    9.1950   -0.9700    3.4600 O   0  0  0  0  0  0  0  0  0  0  0  0
    9.7770   -2.0960    3.2910 C   0  0  0  0  0  0  0  0  0  0  0  0
   10.5640   -2.6390    4.1450 O   0  0  0  0  0  1  0  0  0  0  0  0
   10.4800   -0.7070   -2.0440 C   0  0  0  0  0  2  0  0  0  0  0  0
   10.5680    0.4690   -1.0890 C   0  0  0  0  0  0  0  0  0  0  0  0
    9.8490    0.4630    0.1180 C   0  0  0  0  0  3  0  0  0  0  0  0
    9.9280    1.5450    0.9980 C   0  0  0  0  0  3  0  0  0  0  0  0
   10.7280    2.6420    0.6780 C   0  0  0  0  0  3  0  0  0  0  0  0
   11.4400    2.6490   -0.5170 C   0  0  0  0  0  0  0  0  0  0  0  0
   12.2030    3.7100   -0.8150 F   0  0  0  0  0  0  0  0  0  0  0  0
   11.3700    1.5770   -1.4000 C   0  0  0  0  0  3  0  0  0  0  0  0
  1  7  1  0  0  0  0
  2  1  2  0  0  0  0
  3  2  1  0  0  0  0
  4  3  2  0  0  0  0
  4  5  1  0  0  0  0
  5  1  1  0  0  0  0
  6  9  1  0  0  0  0
  7  6  1  0  0  0  0
  8  7  2  0  0  0  0
  9 12  1  0  0  0  0
 10  9  2  0  0  0  0
 12 11  2  0  0  0  0
 12 13  1  0  0  0  0
 14  5  1  0  0  0  0
 14 15  1  0  0  0  0
 15 16  1  0  0  0  0
 16 17  2  0  0  0  0
 18 17  1  0  0  0  0
 19 18  2  0  0  0  0
 20 19  1  0  0  0  0
 21 15  2  0  0  0  0
 21 19  1  0  0  0  0
M  END
>  <minimizedAffinity>
-7.25850248

$$$$
