
 OpenBabel09132204463D

 29 31  0  0  0  0  0  0  0  0999 V2000
    6.5390   -3.3290    6.5290 C   0  0  0  0  0  0  0  0  0  0  0  0
    7.4070   -2.6560    7.3120 C   0  0  0  0  0  2  0  0  0  0  0  0
    8.5290   -1.9090    6.8560 C   0  0  0  0  0  0  0  0  0  0  0  0
    9.8110   -1.7830    7.3770 C   0  0  0  0  0  3  0  0  0  0  0  0
   10.5530   -0.9340    6.5210 C   0  0  0  0  0  3  0  0  0  0  0  0
    9.7060   -0.5810    5.4940 C   0  0  0  0  0  0  0  0  0  0  0  0
    8.4970   -1.1820    5.6860 O   0  0  0  0  0  0  0  0  0  0  0  0
    9.8310    0.2510    4.3000 C   0  0  0  0  0  0  0  0  0  0  0  0
    9.4020   -0.2080    3.0460 C   0  0  0  0  0  3  0  0  0  0  0  0
    9.5160    0.5930    1.9040 C   0  0  0  0  0  3  0  0  0  0  0  0
   10.0560    1.8800    1.9940 C   0  0  0  0  0  0  0  0  0  0  0  0
   10.4990    2.3410    3.2380 C   0  0  0  0  0  3  0  0  0  0  0  0
   10.3820    1.5380    4.3780 C   0  0  0  0  0  3  0  0  0  0  0  0
   10.2100    2.7350    0.7660 C   0  0  0  0  0  2  0  0  0  0  0  0
    8.9610    3.3010    0.3910 O   0  0  0  0  0  0  0  0  0  0  0  0
    8.3470    3.1710    1.1340 H   0  0  0  0  0  0  0  0  0  0  0  0
    6.7180   -3.4830    5.1600 N   0  0  0  0  0  4  0  0  0  0  0  0
    5.8800   -3.9770    4.1860 C   0  0  0  0  0  0  0  0  0  0  0  0
    6.3470   -4.2710    3.0800 O   0  0  0  0  0  0  0  0  0  0  0  0
    7.6520   -3.3270    4.8090 H   0  0  0  0  0  0  0  0  0  0  0  0
    4.4140   -4.0620    4.3670 C   0  0  0  0  0  0  0  0  0  0  0  0
    3.6760   -2.8730    4.4050 C   0  0  0  0  0  3  0  0  0  0  0  0
    2.3020   -2.9100    4.6510 C   0  0  0  0  0  3  0  0  0  0  0  0
    1.6680   -4.1320    4.8760 C   0  0  0  0  0  3  0  0  0  0  0  0
    2.4060   -5.3160    4.8620 C   0  0  0  0  0  3  0  0  0  0  0  0
    3.7810   -5.2830    4.6230 C   0  0  0  0  0  3  0  0  0  0  0  0
    5.5570   -5.2710    7.5150 O   0  0  0  0  0  0  0  0  0  0  0  0
    5.4140   -4.0220    7.3620 C   0  0  0  0  0  0  0  0  0  0  0  0
    4.4890   -3.2530    7.7480 O   0  0  0  0  0  1  0  0  0  0  0  0
  1  2  1  0  0  0  0
  1 28  1  0  0  0  0
  3  2  1  0  0  0  0
  3  4  2  0  0  0  0
  5  4  1  0  0  0  0
  6  7  1  0  0  0  0
  6  5  2  0  0  0  0
  7  3  1  0  0  0  0
  8 13  1  0  0  0  0
  8  6  1  0  0  0  0
  9  8  2  0  0  0  0
 10 11  2  0  0  0  0
 10  9  1  0  0  0  0
 11 12  1  0  0  0  0
 12 13  2  0  0  0  0
 14 11  1  0  0  0  0
 15 14  1  0  0  0  0
 15 16  1  0  0  0  0
 17  1  2  0  0  0  0
 18 21  1  0  0  0  0
 18 17  1  0  0  0  0
 19 18  2  0  0  0  0
 20 17  1  0  0  0  0
 21 22  2  0  0  0  0
 21 26  1  0  0  0  0
 22 23  1  0  0  0  0
 23 24  2  0  0  0  0
 25 24  1  0  0  0  0
 26 25  2  0  0  0  0
 28 27  2  0  0  0  0
 28 29  1  0  0  0  0
M  END
>  <minimizedAffinity>
-5.63495064

$$$$
