
 OpenBabel09132200303D

 29 31  0  0  0  0  0  0  0  0999 V2000
    6.3400   -3.4140    6.1340 C   0  0  0  0  0  0  0  0  0  0  0  0
    7.2450   -2.5720    6.6730 C   0  0  0  0  0  2  0  0  0  0  0  0
    8.2860   -1.9070    5.9650 C   0  0  0  0  0  0  0  0  0  0  0  0
    9.4220   -1.2510    6.4230 C   0  0  0  0  0  3  0  0  0  0  0  0
   10.1440   -0.7860    5.2980 C   0  0  0  0  0  3  0  0  0  0  0  0
    9.4360   -1.1870    4.1880 C   0  0  0  0  0  0  0  0  0  0  0  0
    8.3300   -1.8770    4.5890 O   0  0  0  0  0  0  0  0  0  0  0  0
    9.6190   -1.0430    2.7450 C   0  0  0  0  0  0  0  0  0  0  0  0
    9.4530    0.1970    2.1120 C   0  0  0  0  0  3  0  0  0  0  0  0
    9.6360    0.3350    0.7320 C   0  0  0  0  0  3  0  0  0  0  0  0
    9.9970   -0.7680   -0.0480 C   0  0  0  0  0  0  0  0  0  0  0  0
   10.1510   -2.0120    0.5730 C   0  0  0  0  0  3  0  0  0  0  0  0
    9.9690   -2.1460    1.9540 C   0  0  0  0  0  3  0  0  0  0  0  0
   10.1640   -0.6340   -1.5370 C   0  0  0  0  0  2  0  0  0  0  0  0
   10.0900    0.7310   -1.9280 O   0  0  0  0  0  0  0  0  0  0  0  0
   10.1590    1.2700   -1.1200 H   0  0  0  0  0  0  0  0  0  0  0  0
    6.4000   -3.8460    4.8150 N   0  0  0  0  0  4  0  0  0  0  0  0
    5.4390   -4.3930    3.9950 C   0  0  0  0  0  0  0  0  0  0  0  0
    5.7850   -4.9510    2.9480 O   0  0  0  0  0  0  0  0  0  0  0  0
    7.3190   -3.8890    4.3980 H   0  0  0  0  0  0  0  0  0  0  0  0
    3.9900   -4.2390    4.2560 C   0  0  0  0  0  0  0  0  0  0  0  0
    3.4330   -2.9570    4.1880 C   0  0  0  0  0  3  0  0  0  0  0  0
    2.0870   -2.7620    4.5020 C   0  0  0  0  0  3  0  0  0  0  0  0
    1.3020   -3.8440    4.9010 C   0  0  0  0  0  3  0  0  0  0  0  0
    1.8620   -5.1190    4.9940 C   0  0  0  0  0  3  0  0  0  0  0  0
    3.2100   -5.3160    4.6860 C   0  0  0  0  0  3  0  0  0  0  0  0
    5.4690   -5.1670    7.5030 O   0  0  0  0  0  0  0  0  0  0  0  0
    5.3280   -3.9460    7.1980 C   0  0  0  0  0  0  0  0  0  0  0  0
    4.4780   -3.0980    7.5940 O   0  0  0  0  0  1  0  0  0  0  0  0
  1  2  1  0  0  0  0
  1 28  1  0  0  0  0
  3  4  2  0  0  0  0
  3  2  1  0  0  0  0
  5  4  1  0  0  0  0
  6  7  1  0  0  0  0
  6  5  2  0  0  0  0
  7  3  1  0  0  0  0
  8  6  1  0  0  0  0
  9  8  1  0  0  0  0
 10  9  2  0  0  0  0
 11 12  2  0  0  0  0
 11 10  1  0  0  0  0
 12 13  1  0  0  0  0
 13  8  2  0  0  0  0
 14 11  1  0  0  0  0
 15 14  1  0  0  0  0
 15 16  1  0  0  0  0
 17  1  2  0  0  0  0
 18 21  1  0  0  0  0
 18 17  1  0  0  0  0
 19 18  2  0  0  0  0
 20 17  1  0  0  0  0
 21 26  1  0  0  0  0
 22 21  2  0  0  0  0
 22 23  1  0  0  0  0
 23 24  2  0  0  0  0
 24 25  1  0  0  0  0
 26 25  2  0  0  0  0
 28 27  2  0  0  0  0
 28 29  1  0  0  0  0
M  END
>  <minimizedAffinity>
-5.76544523

$$$$

 OpenBabel09132200303D

 29 31  0  0  0  0  0  0  0  0999 V2000
    6.5390   -3.3290    6.5290 C   0  0  0  0  0  0  0  0  0  0  0  0
    7.4070   -2.6560    7.3120 C   0  0  0  0  0  2  0  0  0  0  0  0
    8.5290   -1.9090    6.8560 C   0  0  0  0  0  0  0  0  0  0  0  0
    9.8110   -1.7830    7.3770 C   0  0  0  0  0  3  0  0  0  0  0  0
   10.5530   -0.9340    6.5210 C   0  0  0  0  0  3  0  0  0  0  0  0
    9.7060   -0.5810    5.4940 C   0  0  0  0  0  0  0  0  0  0  0  0
    8.4970   -1.1820    5.6860 O   0  0  0  0  0  0  0  0  0  0  0  0
    9.8310    0.2510    4.3000 C   0  0  0  0  0  0  0  0  0  0  0  0
    9.4020   -0.2080    3.0460 C   0  0  0  0  0  3  0  0  0  0  0  0
    9.5160    0.5930    1.9040 C   0  0  0  0  0  3  0  0  0  0  0  0
   10.0560    1.8800    1.9940 C   0  0  0  0  0  0  0  0  0  0  0  0
   10.4990    2.3410    3.2380 C   0  0  0  0  0  3  0  0  0  0  0  0
   10.3820    1.5380    4.3780 C   0  0  0  0  0  3  0  0  0  0  0  0
   10.2100    2.7350    0.7660 C   0  0  0  0  0  2  0  0  0  0  0  0
    8.9610    3.3010    0.3910 O   0  0  0  0  0  0  0  0  0  0  0  0
    8.3470    3.1710    1.1340 H   0  0  0  0  0  0  0  0  0  0  0  0
    6.7180   -3.4830    5.1600 N   0  0  0  0  0  4  0  0  0  0  0  0
    5.8800   -3.9770    4.1860 C   0  0  0  0  0  0  0  0  0  0  0  0
    6.3470   -4.2710    3.0800 O   0  0  0  0  0  0  0  0  0  0  0  0
    7.6520   -3.3270    4.8090 H   0  0  0  0  0  0  0  0  0  0  0  0
    4.4140   -4.0620    4.3670 C   0  0  0  0  0  0  0  0  0  0  0  0
    3.6760   -2.8730    4.4050 C   0  0  0  0  0  3  0  0  0  0  0  0
    2.3020   -2.9100    4.6510 C   0  0  0  0  0  3  0  0  0  0  0  0
    1.6680   -4.1320    4.8760 C   0  0  0  0  0  3  0  0  0  0  0  0
    2.4060   -5.3160    4.8620 C   0  0  0  0  0  3  0  0  0  0  0  0
    3.7810   -5.2830    4.6230 C   0  0  0  0  0  3  0  0  0  0  0  0
    5.5570   -5.2710    7.5150 O   0  0  0  0  0  0  0  0  0  0  0  0
    5.4140   -4.0220    7.3620 C   0  0  0  0  0  0  0  0  0  0  0  0
    4.4890   -3.2530    7.7480 O   0  0  0  0  0  1  0  0  0  0  0  0
  1  2  1  0  0  0  0
  1 28  1  0  0  0  0
  3  2  1  0  0  0  0
  3  4  2  0  0  0  0
  5  4  1  0  0  0  0
  6  7  1  0  0  0  0
  6  5  2  0  0  0  0
  7  3  1  0  0  0  0
  8 13  1  0  0  0  0
  8  6  1  0  0  0  0
  9  8  2  0  0  0  0
 10 11  2  0  0  0  0
 10  9  1  0  0  0  0
 11 12  1  0  0  0  0
 12 13  2  0  0  0  0
 14 11  1  0  0  0  0
 15 14  1  0  0  0  0
 15 16  1  0  0  0  0
 17  1  2  0  0  0  0
 18 21  1  0  0  0  0
 18 17  1  0  0  0  0
 19 18  2  0  0  0  0
 20 17  1  0  0  0  0
 21 22  2  0  0  0  0
 21 26  1  0  0  0  0
 22 23  1  0  0  0  0
 23 24  2  0  0  0  0
 25 24  1  0  0  0  0
 26 25  2  0  0  0  0
 28 27  2  0  0  0  0
 28 29  1  0  0  0  0
M  END
>  <minimizedAffinity>
-5.63495064

$$$$

 OpenBabel09132200303D

 29 31  0  0  0  0  0  0  0  0999 V2000
    6.1090   -3.7370    4.3230 C   0  0  0  0  0  0  0  0  0  0  0  0
    6.5230   -3.4350    3.0760 C   0  0  0  0  0  2  0  0  0  0  0  0
    7.7910   -2.8900    2.7300 C   0  0  0  0  0  0  0  0  0  0  0  0
    9.0580   -3.4600    2.7330 C   0  0  0  0  0  3  0  0  0  0  0  0
    9.9790   -2.4880    2.2740 C   0  0  0  0  0  3  0  0  0  0  0  0
    9.2440   -1.3600    1.9880 C   0  0  0  0  0  0  0  0  0  0  0  0
    7.9280   -1.6080    2.2440 O   0  0  0  0  0  0  0  0  0  0  0  0
    9.5640   -0.0260    1.4850 C   0  0  0  0  0  0  0  0  0  0  0  0
    9.3770    1.1140    2.2800 C   0  0  0  0  0  3  0  0  0  0  0  0
    9.6900    2.3910    1.8000 C   0  0  0  0  0  3  0  0  0  0  0  0
   10.2070    2.5550    0.5110 C   0  0  0  0  0  0  0  0  0  0  0  0
   10.3830    1.4240   -0.2940 C   0  0  0  0  0  3  0  0  0  0  0  0
   10.0710    0.1490    0.1900 C   0  0  0  0  0  3  0  0  0  0  0  0
   10.5160    3.9260   -0.0240 C   0  0  0  0  0  2  0  0  0  0  0  0
    9.3910    4.7830    0.1170 O   0  0  0  0  0  0  0  0  0  0  0  0
    8.7610    4.3420    0.7140 H   0  0  0  0  0  0  0  0  0  0  0  0
    6.8430   -3.4210    5.4600 N   0  0  0  0  0  4  0  0  0  0  0  0
    6.5160   -2.6770    6.5720 C   0  0  0  0  0  0  0  0  0  0  0  0
    7.4150   -2.3040    7.3330 O   0  0  0  0  0  0  0  0  0  0  0  0
    7.8230   -3.6630    5.4440 H   0  0  0  0  0  0  0  0  0  0  0  0
    5.1150   -2.4020    6.9610 C   0  0  0  0  0  0  0  0  0  0  0  0
    4.6960   -1.0690    7.0460 C   0  0  0  0  0  3  0  0  0  0  0  0
    3.4050   -0.7680    7.4840 C   0  0  0  0  0  3  0  0  0  0  0  0
    2.5380   -1.7980    7.8540 C   0  0  0  0  0  3  0  0  0  0  0  0
    2.9630   -3.1260    7.7930 C   0  0  0  0  0  3  0  0  0  0  0  0
    4.2560   -3.4300    7.3610 C   0  0  0  0  0  3  0  0  0  0  0  0
    3.8390   -3.7470    3.5800 O   0  0  0  0  0  0  0  0  0  0  0  0
    4.6680   -4.3380    4.3340 C   0  0  0  0  0  0  0  0  0  0  0  0
    4.5050   -5.3160    5.1160 O   0  0  0  0  0  1  0  0  0  0  0  0
  1 28  1  0  0  0  0
  1 17  2  0  0  0  0
  2  1  1  0  0  0  0
  3  4  2  0  0  0  0
  3  2  1  0  0  0  0
  5  4  1  0  0  0  0
  6  7  1  0  0  0  0
  6  5  2  0  0  0  0
  7  3  1  0  0  0  0
  8  6  1  0  0  0  0
  8  9  1  0  0  0  0
 10  9  2  0  0  0  0
 11 10  1  0  0  0  0
 12 13  1  0  0  0  0
 12 11  2  0  0  0  0
 13  8  2  0  0  0  0
 14 15  1  0  0  0  0
 14 11  1  0  0  0  0
 15 16  1  0  0  0  0
 17 18  1  0  0  0  0
 18 21  1  0  0  0  0
 18 19  2  0  0  0  0
 20 17  1  0  0  0  0
 21 22  2  0  0  0  0
 21 26  1  0  0  0  0
 22 23  1  0  0  0  0
 23 24  2  0  0  0  0
 25 24  1  0  0  0  0
 26 25  2  0  0  0  0
 27 28  2  0  0  0  0
 28 29  1  0  0  0  0
M  END
>  <minimizedAffinity>
-4.13186598

$$$$
