
 OpenBabel09132204463D

 29 31  0  0  0  0  0  0  0  0999 V2000
    6.1090   -3.7370    4.3230 C   0  0  0  0  0  0  0  0  0  0  0  0
    6.5230   -3.4350    3.0760 C   0  0  0  0  0  2  0  0  0  0  0  0
    7.7910   -2.8900    2.7300 C   0  0  0  0  0  0  0  0  0  0  0  0
    9.0580   -3.4600    2.7330 C   0  0  0  0  0  3  0  0  0  0  0  0
    9.9790   -2.4880    2.2740 C   0  0  0  0  0  3  0  0  0  0  0  0
    9.2440   -1.3600    1.9880 C   0  0  0  0  0  0  0  0  0  0  0  0
    7.9280   -1.6080    2.2440 O   0  0  0  0  0  0  0  0  0  0  0  0
    9.5640   -0.0260    1.4850 C   0  0  0  0  0  0  0  0  0  0  0  0
    9.3770    1.1140    2.2800 C   0  0  0  0  0  3  0  0  0  0  0  0
    9.6900    2.3910    1.8000 C   0  0  0  0  0  3  0  0  0  0  0  0
   10.2070    2.5550    0.5110 C   0  0  0  0  0  0  0  0  0  0  0  0
   10.3830    1.4240   -0.2940 C   0  0  0  0  0  3  0  0  0  0  0  0
   10.0710    0.1490    0.1900 C   0  0  0  0  0  3  0  0  0  0  0  0
   10.5160    3.9260   -0.0240 C   0  0  0  0  0  2  0  0  0  0  0  0
    9.3910    4.7830    0.1170 O   0  0  0  0  0  0  0  0  0  0  0  0
    8.7610    4.3420    0.7140 H   0  0  0  0  0  0  0  0  0  0  0  0
    6.8430   -3.4210    5.4600 N   0  0  0  0  0  4  0  0  0  0  0  0
    6.5160   -2.6770    6.5720 C   0  0  0  0  0  0  0  0  0  0  0  0
    7.4150   -2.3040    7.3330 O   0  0  0  0  0  0  0  0  0  0  0  0
    7.8230   -3.6630    5.4440 H   0  0  0  0  0  0  0  0  0  0  0  0
    5.1150   -2.4020    6.9610 C   0  0  0  0  0  0  0  0  0  0  0  0
    4.6960   -1.0690    7.0460 C   0  0  0  0  0  3  0  0  0  0  0  0
    3.4050   -0.7680    7.4840 C   0  0  0  0  0  3  0  0  0  0  0  0
    2.5380   -1.7980    7.8540 C   0  0  0  0  0  3  0  0  0  0  0  0
    2.9630   -3.1260    7.7930 C   0  0  0  0  0  3  0  0  0  0  0  0
    4.2560   -3.4300    7.3610 C   0  0  0  0  0  3  0  0  0  0  0  0
    3.8390   -3.7470    3.5800 O   0  0  0  0  0  0  0  0  0  0  0  0
    4.6680   -4.3380    4.3340 C   0  0  0  0  0  0  0  0  0  0  0  0
    4.5050   -5.3160    5.1160 O   0  0  0  0  0  1  0  0  0  0  0  0
  1 28  1  0  0  0  0
  1 17  2  0  0  0  0
  2  1  1  0  0  0  0
  3  4  2  0  0  0  0
  3  2  1  0  0  0  0
  5  4  1  0  0  0  0
  6  7  1  0  0  0  0
  6  5  2  0  0  0  0
  7  3  1  0  0  0  0
  8  6  1  0  0  0  0
  8  9  1  0  0  0  0
 10  9  2  0  0  0  0
 11 10  1  0  0  0  0
 12 13  1  0  0  0  0
 12 11  2  0  0  0  0
 13  8  2  0  0  0  0
 14 15  1  0  0  0  0
 14 11  1  0  0  0  0
 15 16  1  0  0  0  0
 17 18  1  0  0  0  0
 18 21  1  0  0  0  0
 18 19  2  0  0  0  0
 20 17  1  0  0  0  0
 21 22  2  0  0  0  0
 21 26  1  0  0  0  0
 22 23  1  0  0  0  0
 23 24  2  0  0  0  0
 25 24  1  0  0  0  0
 26 25  2  0  0  0  0
 27 28  2  0  0  0  0
 28 29  1  0  0  0  0
M  END
>  <minimizedAffinity>
-4.13186598

$$$$
