
 OpenBabel09092210413D

 43 48  0  0  0  0  0  0  0  0999 V2000
    7.1060   -4.7840   -5.0260 C   0  0  0  0  0  1  0  0  0  0  0  0
    6.0880   -5.8350   -5.2620 N   0  0  0  0  0  0  0  0  0  0  0  0
    5.2930   -5.5900   -6.4960 C   0  0  0  0  0  2  0  0  0  0  0  0
    4.2090   -4.5210   -6.2700 C   0  0  0  0  0  2  0  0  0  0  0  0
    3.0990   -4.9560   -5.3030 C   0  0  0  0  0  2  0  0  0  0  0  0
    3.3940   -4.6580   -3.8270 C   0  0  0  0  0  2  0  0  0  0  0  0
    3.0040   -3.2500   -3.3720 C   0  0  0  0  0  2  0  0  0  0  0  0
    1.5710   -3.1680   -3.1490 N   0  0  0  0  0  0  0  0  0  0  0  0
    0.8760   -3.1950   -1.9820 C   0  0  0  0  0  0  0  0  0  0  0  0
   -0.3510   -3.2730   -1.9900 O   0  0  0  0  0  0  0  0  0  0  0  0
    1.5940   -3.0710   -0.6980 C   0  0  0  0  0  0  0  0  0  0  0  0
    1.6430   -1.8340   -0.1730 C   0  0  0  0  0  3  0  0  0  0  0  0
    2.0410   -1.5660    1.2230 C   0  0  0  0  0  0  0  0  0  0  0  0
    1.3310   -0.5420    1.8780 C   0  0  0  0  0  3  0  0  0  0  0  0
    1.5600   -0.2510    3.2230 C   0  0  0  0  0  3  0  0  0  0  0  0
    2.4970   -0.9920    3.9300 C   0  0  0  0  0  0  0  0  0  0  0  0
    2.7710   -0.6590    5.5960 Cl  0  0  0  0  0  0  0  0  0  0  0  0
    3.2200   -2.0010    3.2990 C   0  0  0  0  0  3  0  0  0  0  0  0
    3.0350   -2.2800    1.9320 C   0  0  0  0  0  0  0  0  0  0  0  0
    3.8900   -3.3070    1.2990 C   0  0  0  0  0  0  0  0  0  0  0  0
    5.2760   -3.4880    1.3630 C   0  0  0  0  0  0  0  0  0  0  0  0
    5.5920   -4.6320    0.5510 C   0  0  0  0  0  0  0  0  0  0  0  0
    6.7930   -5.3000    0.2200 C   0  0  0  0  0  3  0  0  0  0  0  0
    6.7990   -6.3130   -0.7480 C   0  0  0  0  0  3  0  0  0  0  0  0
    5.6080   -6.7030   -1.3570 C   0  0  0  0  0  0  0  0  0  0  0  0
    4.3870   -6.1570   -0.9290 C   0  0  0  0  0  3  0  0  0  0  0  0
    4.4040   -5.0880   -0.0180 C   0  0  0  0  0  0  0  0  0  0  0  0
    3.3910   -4.2690    0.4360 N   0  0  0  0  0  0  0  0  0  0  0  0
    1.9930   -4.3290    0.0020 C   0  0  0  0  0  2  0  0  0  0  0  0
    5.5560   -7.5270   -2.6000 C   0  0  0  0  0  0  0  0  0  0  0  0
    4.5260   -8.0970   -2.9180 O   0  0  0  0  0  0  0  0  0  0  0  0
    6.7080   -7.4590   -3.4010 N   0  0  0  0  0  0  0  0  0  0  0  0
    6.6500   -7.4350   -5.0610 S   0  0  0  0  0  0  0  0  0  0  0  0
    5.6690   -8.3660   -5.5490 O   0  0  0  0  0  0  0  0  0  0  0  0
    8.0210   -7.4600   -5.5180 O   0  0  0  0  0  0  0  0  0  0  0  0
    0.9670   -3.1950   -3.9630 H   0  0  0  0  0  0  0  0  0  0  0  0
    7.5370   -6.9810   -3.0800 H   0  0  0  0  0  0  0  0  0  0  0  0
    6.2740   -2.6050    2.0930 C   0  0  0  0  0  3  0  0  0  0  0  0
    6.9780   -3.3440    3.2430 C   0  0  0  0  0  2  0  0  0  0  0  0
    7.9490   -2.4290    3.9860 C   0  0  0  0  0  2  0  0  0  0  0  0
    8.9540   -1.7840    3.0360 C   0  0  0  0  0  2  0  0  0  0  0  0
    8.2570   -1.0370    1.9010 C   0  0  0  0  0  2  0  0  0  0  0  0
    7.2880   -1.9440    1.1440 C   0  0  0  0  0  2  0  0  0  0  0  0
  2 33  1  0  0  0  0
  2  1  1  0  0  0  0
  3  4  1  0  0  0  0
  3  2  1  0  0  0  0
  4  5  1  0  0  0  0
  5  6  1  0  0  0  0
  6  7  1  0  0  0  0
  7  8  1  0  0  0  0
  8  9  1  0  0  0  0
  9 11  1  0  0  0  0
 10  9  2  0  0  0  0
 11 12  2  0  0  0  0
 11 29  1  0  0  0  0
 12 13  1  0  0  0  0
 13 14  2  0  0  0  0
 13 19  1  0  0  0  0
 14 15  1  0  0  0  0
 15 16  2  0  0  0  0
 16 17  1  0  0  0  0
 18 16  1  0  0  0  0
 19 18  2  0  0  0  0
 20 21  2  0  0  0  0
 20 19  1  0  0  0  0
 21 38  1  0  0  0  0
 22 21  1  0  0  0  0
 23 22  1  0  0  0  0
 24 23  2  0  0  0  0
 25 26  2  0  0  0  0
 25 24  1  0  0  0  0
 26 27  1  0  0  0  0
 27 28  1  0  0  0  0
 27 22  2  0  0  0  0
 28 20  1  0  0  0  0
 29 28  1  0  0  0  0
 30 25  1  0  0  0  0
 31 30  2  0  0  0  0
 32 37  1  0  0  0  0
 32 30  1  0  0  0  0
 33 32  1  0  0  0  0
 34 33  2  0  0  0  0
 35 33  2  0  0  0  0
 36  8  1  0  0  0  0
 38 39  1  0  0  0  0
 39 40  1  0  0  0  0
 41 40  1  0  0  0  0
 42 41  1  0  0  0  0
 43 42  1  0  0  0  0
 43 38  1  0  0  0  0
M  END
>  <minimizedAffinity>
-4.65282249

$$$$
