
 OpenBabel09092210413D

 43 48  0  0  0  0  0  0  0  0999 V2000
    6.2480  -10.0940   -4.7260 C   0  0  0  0  0  1  0  0  0  0  0  0
    7.5330   -9.3840   -4.5200 N   0  0  0  0  0  0  0  0  0  0  0  0
    8.2600   -9.8620   -3.3120 C   0  0  0  0  0  2  0  0  0  0  0  0
    7.6680   -9.2680   -2.0220 C   0  0  0  0  0  2  0  0  0  0  0  0
    7.8670   -7.7510   -1.8870 C   0  0  0  0  0  2  0  0  0  0  0  0
    6.7560   -6.9090   -2.5280 C   0  0  0  0  0  2  0  0  0  0  0  0
    5.5480   -6.6590   -1.6240 C   0  0  0  0  0  2  0  0  0  0  0  0
    5.8440   -5.6160   -0.6570 N   0  0  0  0  0  0  0  0  0  0  0  0
    5.4800   -4.3060   -0.6610 C   0  0  0  0  0  0  0  0  0  0  0  0
    5.9560   -3.5260    0.1620 O   0  0  0  0  0  0  0  0  0  0  0  0
    4.4650   -3.8300   -1.6220 C   0  0  0  0  0  0  0  0  0  0  0  0
    3.2050   -3.7620   -1.1550 C   0  0  0  0  0  3  0  0  0  0  0  0
    2.1260   -3.0360   -1.8520 C   0  0  0  0  0  0  0  0  0  0  0  0
    1.2180   -2.3460   -1.0270 C   0  0  0  0  0  3  0  0  0  0  0  0
    0.2040   -1.5580   -1.5710 C   0  0  0  0  0  3  0  0  0  0  0  0
    0.0950   -1.4430   -2.9500 C   0  0  0  0  0  0  0  0  0  0  0  0
   -1.1370   -0.4550   -3.6320 Cl  0  0  0  0  0  0  0  0  0  0  0  0
    0.9750   -2.1280   -3.7850 C   0  0  0  0  0  3  0  0  0  0  0  0
    1.9760   -2.9620   -3.2570 C   0  0  0  0  0  0  0  0  0  0  0  0
    2.8270   -3.7260   -4.1940 C   0  0  0  0  0  0  0  0  0  0  0  0
    2.4710   -4.5040   -5.3030 C   0  0  0  0  0  0  0  0  0  0  0  0
    3.6880   -5.0340   -5.8550 C   0  0  0  0  0  0  0  0  0  0  0  0
    3.9830   -5.8750   -6.9530 C   0  0  0  0  0  3  0  0  0  0  0  0
    5.2830   -6.3590   -7.1470 C   0  0  0  0  0  3  0  0  0  0  0  0
    6.3070   -5.9750   -6.2840 C   0  0  0  0  0  0  0  0  0  0  0  0
    6.0630   -5.0220   -5.2830 C   0  0  0  0  0  3  0  0  0  0  0  0
    4.7410   -4.6080   -5.0490 C   0  0  0  0  0  0  0  0  0  0  0  0
    4.2010   -3.8290   -4.0470 N   0  0  0  0  0  0  0  0  0  0  0  0
    4.9440   -3.2620   -2.9180 C   0  0  0  0  0  2  0  0  0  0  0  0
    7.6250   -6.6730   -6.2150 C   0  0  0  0  0  0  0  0  0  0  0  0
    8.5820   -6.1300   -5.6890 O   0  0  0  0  0  0  0  0  0  0  0  0
    7.6100   -8.0050   -6.6600 N   0  0  0  0  0  0  0  0  0  0  0  0
    8.4880   -9.2090   -5.9250 S   0  0  0  0  0  0  0  0  0  0  0  0
    9.8010   -8.7380   -5.5730 O   0  0  0  0  0  0  0  0  0  0  0  0
    8.2920  -10.4000   -6.7190 O   0  0  0  0  0  0  0  0  0  0  0  0
    6.4970   -5.8360    0.0860 H   0  0  0  0  0  0  0  0  0  0  0  0
    6.7900   -8.3980   -7.0990 H   0  0  0  0  0  0  0  0  0  0  0  0
    1.0630   -4.7930   -5.7930 C   0  0  0  0  0  3  0  0  0  0  0  0
    0.8120   -4.2440   -7.2080 C   0  0  0  0  0  2  0  0  0  0  0  0
   -0.6190   -4.5140   -7.6670 C   0  0  0  0  0  2  0  0  0  0  0  0
   -0.9730   -5.9960   -7.5700 C   0  0  0  0  0  2  0  0  0  0  0  0
   -0.7370   -6.5380   -6.1630 C   0  0  0  0  0  2  0  0  0  0  0  0
    0.6940   -6.2830   -5.6940 C   0  0  0  0  0  2  0  0  0  0  0  0
  1  2  1  0  0  0  0
  2  3  1  0  0  0  0
  3  4  1  0  0  0  0
  4  5  1  0  0  0  0
  6  5  1  0  0  0  0
  6  7  1  0  0  0  0
  7  8  1  0  0  0  0
  8 36  1  0  0  0  0
  9  8  1  0  0  0  0
  9 10  2  0  0  0  0
 11 12  2  0  0  0  0
 11  9  1  0  0  0  0
 13 12  1  0  0  0  0
 13 14  1  0  0  0  0
 15 14  2  0  0  0  0
 16 15  1  0  0  0  0
 17 16  1  0  0  0  0
 18 19  1  0  0  0  0
 18 16  2  0  0  0  0
 19 13  2  0  0  0  0
 20 28  1  0  0  0  0
 20 19  1  0  0  0  0
 21 20  2  0  0  0  0
 22 21  1  0  0  0  0
 22 27  1  0  0  0  0
 23 22  2  0  0  0  0
 24 23  1  0  0  0  0
 24 25  2  0  0  0  0
 25 30  1  0  0  0  0
 25 26  1  0  0  0  0
 26 27  2  0  0  0  0
 27 28  1  0  0  0  0
 28 29  1  0  0  0  0
 29 11  1  0  0  0  0
 30 31  2  0  0  0  0
 32 30  1  0  0  0  0
 32 33  1  0  0  0  0
 33 34  2  0  0  0  0
 33  2  1  0  0  0  0
 35 33  2  0  0  0  0
 37 32  1  0  0  0  0
 38 43  1  0  0  0  0
 38 21  1  0  0  0  0
 39 38  1  0  0  0  0
 40 41  1  0  0  0  0
 40 39  1  0  0  0  0
 41 42  1  0  0  0  0
 42 43  1  0  0  0  0
M  END
>  <minimizedAffinity>
-4.56307173

$$$$
