
 OpenBabel09092210413D

 43 48  0  0  0  0  0  0  0  0999 V2000
    4.6340   -5.5990    5.7830 C   0  0  0  0  0  1  0  0  0  0  0  0
    5.2240   -6.2790    4.6050 N   0  0  0  0  0  0  0  0  0  0  0  0
    6.0120   -7.4850    4.9790 C   0  0  0  0  0  2  0  0  0  0  0  0
    7.4030   -7.1090    5.5200 C   0  0  0  0  0  2  0  0  0  0  0  0
    8.3310   -6.4820    4.4680 C   0  0  0  0  0  2  0  0  0  0  0  0
    8.2060   -4.9580    4.3440 C   0  0  0  0  0  2  0  0  0  0  0  0
    9.0680   -4.1670    5.3280 C   0  0  0  0  0  2  0  0  0  0  0  0
   10.4500   -4.1360    4.8810 N   0  0  0  0  0  0  0  0  0  0  0  0
   11.1340   -3.1410    4.2580 C   0  0  0  0  0  0  0  0  0  0  0  0
   12.2590   -3.3470    3.8080 O   0  0  0  0  0  0  0  0  0  0  0  0
   10.5460   -1.7890    4.1720 C   0  0  0  0  0  0  0  0  0  0  0  0
   10.9400   -0.9190    5.1190 C   0  0  0  0  0  3  0  0  0  0  0  0
   10.7060    0.5350    5.0250 C   0  0  0  0  0  0  0  0  0  0  0  0
   11.7450    1.3560    5.5020 C   0  0  0  0  0  3  0  0  0  0  0  0
   11.6760    2.7450    5.3930 C   0  0  0  0  0  3  0  0  0  0  0  0
   10.5670    3.3270    4.7930 C   0  0  0  0  0  0  0  0  0  0  0  0
   10.4810    5.0370    4.6310 Cl  0  0  0  0  0  0  0  0  0  0  0  0
    9.5210    2.5340    4.3260 C   0  0  0  0  0  3  0  0  0  0  0  0
    9.5530    1.1350    4.4670 C   0  0  0  0  0  0  0  0  0  0  0  0
    8.3780    0.3540    4.0250 C   0  0  0  0  0  0  0  0  0  0  0  0
    7.0160    0.5580    4.2760 C   0  0  0  0  0  0  0  0  0  0  0  0
    6.3010   -0.5030    3.6200 C   0  0  0  0  0  0  0  0  0  0  0  0
    4.9330   -0.8430    3.5080 C   0  0  0  0  0  3  0  0  0  0  0  0
    4.5490   -2.0560    2.9230 C   0  0  0  0  0  3  0  0  0  0  0  0
    5.5130   -2.9170    2.4030 C   0  0  0  0  0  0  0  0  0  0  0  0
    6.8610   -2.5250    2.3680 C   0  0  0  0  0  3  0  0  0  0  0  0
    7.2410   -1.3450    3.0290 C   0  0  0  0  0  0  0  0  0  0  0  0
    8.4880   -0.8180    3.2940 N   0  0  0  0  0  0  0  0  0  0  0  0
    9.7660   -1.4440    2.9460 C   0  0  0  0  0  2  0  0  0  0  0  0
    5.2370   -4.3430    2.0580 C   0  0  0  0  0  0  0  0  0  0  0  0
    6.0000   -4.9590    1.3320 O   0  0  0  0  0  0  0  0  0  0  0  0
    4.1510   -4.9150    2.7410 N   0  0  0  0  0  0  0  0  0  0  0  0
    4.1570   -6.4840    3.2880 S   0  0  0  0  0  0  0  0  0  0  0  0
    4.7440   -7.3600    2.3100 O   0  0  0  0  0  0  0  0  0  0  0  0
    2.8450   -6.7270    3.8420 O   0  0  0  0  0  0  0  0  0  0  0  0
   10.9800   -4.9980    4.9350 H   0  0  0  0  0  0  0  0  0  0  0  0
    3.5470   -4.3520    3.3210 H   0  0  0  0  0  0  0  0  0  0  0  0
    6.4060    1.6510    5.1360 C   0  0  0  0  0  3  0  0  0  0  0  0
    5.9160    2.8460    4.3020 C   0  0  0  0  0  2  0  0  0  0  0  0
    5.3390    3.9490    5.1880 C   0  0  0  0  0  2  0  0  0  0  0  0
    4.2410    3.4180    6.1060 C   0  0  0  0  0  2  0  0  0  0  0  0
    4.7310    2.2410    6.9450 C   0  0  0  0  0  2  0  0  0  0  0  0
    5.3020    1.1260    6.0700 C   0  0  0  0  0  2  0  0  0  0  0  0
  2  3  1  0  0  0  0
  2  1  1  0  0  0  0
  3  4  1  0  0  0  0
  5  4  1  0  0  0  0
  6  5  1  0  0  0  0
  6  7  1  0  0  0  0
  8 36  1  0  0  0  0
  8  7  1  0  0  0  0
  9  8  1  0  0  0  0
 10  9  2  0  0  0  0
 11  9  1  0  0  0  0
 11 12  2  0  0  0  0
 13 12  1  0  0  0  0
 13 14  1  0  0  0  0
 15 14  2  0  0  0  0
 16 15  1  0  0  0  0
 17 16  1  0  0  0  0
 18 19  1  0  0  0  0
 18 16  2  0  0  0  0
 19 13  2  0  0  0  0
 20 21  2  0  0  0  0
 20 19  1  0  0  0  0
 21 38  1  0  0  0  0
 22 21  1  0  0  0  0
 23 22  1  0  0  0  0
 24 23  2  0  0  0  0
 25 24  1  0  0  0  0
 26 25  2  0  0  0  0
 26 27  1  0  0  0  0
 27 28  1  0  0  0  0
 27 22  2  0  0  0  0
 28 20  1  0  0  0  0
 29 28  1  0  0  0  0
 29 11  1  0  0  0  0
 30 25  1  0  0  0  0
 30 32  1  0  0  0  0
 31 30  2  0  0  0  0
 32 33  1  0  0  0  0
 32 37  1  0  0  0  0
 33 35  2  0  0  0  0
 33  2  1  0  0  0  0
 34 33  2  0  0  0  0
 38 43  1  0  0  0  0
 39 38  1  0  0  0  0
 39 40  1  0  0  0  0
 40 41  1  0  0  0  0
 41 42  1  0  0  0  0
 43 42  1  0  0  0  0
M  END
>  <minimizedAffinity>
-4.34913874

$$$$
