
 OpenBabel09092210413D

 43 48  0  0  0  0  0  0  0  0999 V2000
    1.5840   -4.4790    2.7640 C   0  0  0  0  0  1  0  0  0  0  0  0
    1.7580   -3.0130    2.6290 N   0  0  0  0  0  0  0  0  0  0  0  0
    0.4620   -2.2990    2.4660 C   0  0  0  0  0  2  0  0  0  0  0  0
   -0.0740   -2.4180    1.0280 C   0  0  0  0  0  2  0  0  0  0  0  0
    0.7820   -1.6880   -0.0180 C   0  0  0  0  0  2  0  0  0  0  0  0
    1.9200   -2.5340   -0.6030 C   0  0  0  0  0  2  0  0  0  0  0  0
    1.5160   -3.4070   -1.7920 C   0  0  0  0  0  2  0  0  0  0  0  0
    1.4260   -2.6080   -3.0020 N   0  0  0  0  0  0  0  0  0  0  0  0
    2.3090   -2.4930   -4.0290 C   0  0  0  0  0  0  0  0  0  0  0  0
    2.1410   -1.6440   -4.9010 O   0  0  0  0  0  0  0  0  0  0  0  0
    3.4450   -3.4310   -4.1270 C   0  0  0  0  0  0  0  0  0  0  0  0
    3.2600   -4.4900   -4.9360 C   0  0  0  0  0  3  0  0  0  0  0  0
    4.3630   -5.3560   -5.3940 C   0  0  0  0  0  0  0  0  0  0  0  0
    4.2730   -5.8140   -6.7230 C   0  0  0  0  0  3  0  0  0  0  0  0
    5.2930   -6.5720   -7.2960 C   0  0  0  0  0  3  0  0  0  0  0  0
    6.4240   -6.8700   -6.5470 C   0  0  0  0  0  0  0  0  0  0  0  0
    7.7000   -7.7840   -7.2510 Cl  0  0  0  0  0  0  0  0  0  0  0  0
    6.5280   -6.4380   -5.2270 C   0  0  0  0  0  3  0  0  0  0  0  0
    5.4900   -5.7100   -4.6170 C   0  0  0  0  0  0  0  0  0  0  0  0
    5.6250   -5.3500   -3.1900 C   0  0  0  0  0  0  0  0  0  0  0  0
    5.9990   -6.1370   -2.0940 C   0  0  0  0  0  0  0  0  0  0  0  0
    5.9550   -5.2920   -0.9320 C   0  0  0  0  0  0  0  0  0  0  0  0
    6.2160   -5.4990    0.4430 C   0  0  0  0  0  3  0  0  0  0  0  0
    5.9220   -4.4990    1.3790 C   0  0  0  0  0  3  0  0  0  0  0  0
    5.4140   -3.2730    0.9550 C   0  0  0  0  0  0  0  0  0  0  0  0
    5.2930   -2.9980   -0.4160 C   0  0  0  0  0  3  0  0  0  0  0  0
    5.5140   -4.0340   -1.3380 C   0  0  0  0  0  0  0  0  0  0  0  0
    5.3100   -4.0920   -2.7010 N   0  0  0  0  0  0  0  0  0  0  0  0
    4.7460   -3.0170   -3.5210 C   0  0  0  0  0  2  0  0  0  0  0  0
    4.7810   -2.2860    1.8790 C   0  0  0  0  0  0  0  0  0  0  0  0
    4.6370   -1.1250    1.5330 O   0  0  0  0  0  0  0  0  0  0  0  0
    4.2620   -2.8350    3.0630 N   0  0  0  0  0  0  0  0  0  0  0  0
    2.8410   -2.3130    3.7480 S   0  0  0  0  0  0  0  0  0  0  0  0
    2.7470   -0.8790    3.6940 O   0  0  0  0  0  0  0  0  0  0  0  0
    2.6950   -3.0420    4.9880 O   0  0  0  0  0  0  0  0  0  0  0  0
    0.6550   -1.9540   -3.0760 H   0  0  0  0  0  0  0  0  0  0  0  0
    4.4220   -3.8030    3.3010 H   0  0  0  0  0  0  0  0  0  0  0  0
    6.3240   -7.6210   -2.1120 C   0  0  0  0  0  3  0  0  0  0  0  0
    7.7880   -7.9030   -1.7360 C   0  0  0  0  0  2  0  0  0  0  0  0
    8.1030   -9.3970   -1.7950 C   0  0  0  0  0  2  0  0  0  0  0  0
    7.1370  -10.2110   -0.9390 C   0  0  0  0  0  2  0  0  0  0  0  0
    5.6840   -9.9420   -1.3210 C   0  0  0  0  0  2  0  0  0  0  0  0
    5.3520   -8.4530   -1.2570 C   0  0  0  0  0  2  0  0  0  0  0  0
  2  1  1  0  0  0  0
  2 33  1  0  0  0  0
  3  2  1  0  0  0  0
  4  3  1  0  0  0  0
  5  4  1  0  0  0  0
  6  5  1  0  0  0  0
  7  6  1  0  0  0  0
  8  7  1  0  0  0  0
  9  8  1  0  0  0  0
 10  9  2  0  0  0  0
 11  9  1  0  0  0  0
 11 29  1  0  0  0  0
 12 11  2  0  0  0  0
 13 12  1  0  0  0  0
 13 19  1  0  0  0  0
 14 13  2  0  0  0  0
 15 14  1  0  0  0  0
 15 16  2  0  0  0  0
 16 18  1  0  0  0  0
 17 16  1  0  0  0  0
 18 19  2  0  0  0  0
 19 20  1  0  0  0  0
 20 28  1  0  0  0  0
 20 21  2  0  0  0  0
 21 22  1  0  0  0  0
 22 23  1  0  0  0  0
 23 24  2  0  0  0  0
 25 24  1  0  0  0  0
 25 30  1  0  0  0  0
 26 25  2  0  0  0  0
 27 22  2  0  0  0  0
 27 26  1  0  0  0  0
 28 27  1  0  0  0  0
 29 28  1  0  0  0  0
 30 32  1  0  0  0  0
 31 30  2  0  0  0  0
 32 37  1  0  0  0  0
 32 33  1  0  0  0  0
 33 35  2  0  0  0  0
 34 33  2  0  0  0  0
 36  8  1  0  0  0  0
 38 21  1  0  0  0  0
 38 39  1  0  0  0  0
 38 43  1  0  0  0  0
 40 39  1  0  0  0  0
 40 41  1  0  0  0  0
 42 43  1  0  0  0  0
 42 41  1  0  0  0  0
M  END
>  <minimizedAffinity>
-4.68368912

$$$$
