
 OpenBabel09092210413D

 43 48  0  0  0  0  0  0  0  0999 V2000
   -0.3680   -5.2820   -5.1450 C   0  0  0  0  0  1  0  0  0  0  0  0
    0.3070   -4.2680   -5.9890 N   0  0  0  0  0  0  0  0  0  0  0  0
    0.3710   -4.6700   -7.4210 C   0  0  0  0  0  2  0  0  0  0  0  0
    1.4910   -5.6960   -7.6720 C   0  0  0  0  0  2  0  0  0  0  0  0
    2.9060   -5.1330   -7.4750 C   0  0  0  0  0  2  0  0  0  0  0  0
    3.4320   -5.2350   -6.0370 C   0  0  0  0  0  2  0  0  0  0  0  0
    4.0990   -6.5680   -5.6970 C   0  0  0  0  0  2  0  0  0  0  0  0
    5.4450   -6.6150   -6.2410 N   0  0  0  0  0  0  0  0  0  0  0  0
    6.6370   -6.4320   -5.6140 C   0  0  0  0  0  0  0  0  0  0  0  0
    7.6760   -6.3510   -6.2650 O   0  0  0  0  0  0  0  0  0  0  0  0
    6.6900   -6.3880   -4.1390 C   0  0  0  0  0  0  0  0  0  0  0  0
    7.0060   -7.5460   -3.5300 C   0  0  0  0  0  3  0  0  0  0  0  0
    7.4000   -7.6280   -2.1110 C   0  0  0  0  0  0  0  0  0  0  0  0
    8.4170   -8.5540   -1.8090 C   0  0  0  0  0  3  0  0  0  0  0  0
    8.9310   -8.6660   -0.5180 C   0  0  0  0  0  3  0  0  0  0  0  0
    8.4400   -7.8420    0.4850 C   0  0  0  0  0  0  0  0  0  0  0  0
    9.0840   -7.9540    2.0770 Cl  0  0  0  0  0  0  0  0  0  0  0  0
    7.4250   -6.9280    0.2120 C   0  0  0  0  0  3  0  0  0  0  0  0
    6.8630   -6.8310   -1.0740 C   0  0  0  0  0  0  0  0  0  0  0  0
    5.7340   -5.9000   -1.2820 C   0  0  0  0  0  0  0  0  0  0  0  0
    4.5670   -5.7170   -0.5300 C   0  0  0  0  0  0  0  0  0  0  0  0
    3.7990   -4.6910   -1.1820 C   0  0  0  0  0  0  0  0  0  0  0  0
    2.5530   -4.0770   -0.9150 C   0  0  0  0  0  3  0  0  0  0  0  0
    1.9800   -3.2010   -1.8450 C   0  0  0  0  0  3  0  0  0  0  0  0
    2.6590   -2.8900   -3.0220 C   0  0  0  0  0  0  0  0  0  0  0  0
    3.9610   -3.3700   -3.2300 C   0  0  0  0  0  3  0  0  0  0  0  0
    4.4900   -4.3100   -2.3310 C   0  0  0  0  0  0  0  0  0  0  0  0
    5.6490   -5.0570   -2.3790 N   0  0  0  0  0  0  0  0  0  0  0  0
    6.6180   -5.0500   -3.4780 C   0  0  0  0  0  2  0  0  0  0  0  0
    2.0060   -2.2370   -4.1950 C   0  0  0  0  0  0  0  0  0  0  0  0
    2.6840   -1.7100   -5.0610 O   0  0  0  0  0  0  0  0  0  0  0  0
    0.6150   -2.4140   -4.2700 N   0  0  0  0  0  0  0  0  0  0  0  0
   -0.1850   -2.6570   -5.7060 S   0  0  0  0  0  0  0  0  0  0  0  0
    0.3380   -1.7940   -6.7310 O   0  0  0  0  0  0  0  0  0  0  0  0
   -1.5940   -2.6970   -5.3860 O   0  0  0  0  0  0  0  0  0  0  0  0
    5.5420   -6.6940   -7.2470 H   0  0  0  0  0  0  0  0  0  0  0  0
    0.1050   -2.8490   -3.5150 H   0  0  0  0  0  0  0  0  0  0  0  0
    4.1510   -6.5000    0.7040 C   0  0  0  0  0  3  0  0  0  0  0  0
    4.0350   -5.6080    1.9510 C   0  0  0  0  0  2  0  0  0  0  0  0
    3.6520   -6.4200    3.1860 C   0  0  0  0  0  2  0  0  0  0  0  0
    2.3790   -7.2300    2.9560 C   0  0  0  0  0  2  0  0  0  0  0  0
    2.4980   -8.1260    1.7260 C   0  0  0  0  0  2  0  0  0  0  0  0
    2.8720   -7.3260    0.4800 C   0  0  0  0  0  2  0  0  0  0  0  0
  2 33  1  0  0  0  0
  2  1  1  0  0  0  0
  3  2  1  0  0  0  0
  4  5  1  0  0  0  0
  4  3  1  0  0  0  0
  5  6  1  0  0  0  0
  6  7  1  0  0  0  0
  8  7  1  0  0  0  0
  8  9  1  0  0  0  0
  9 11  1  0  0  0  0
 10  9  2  0  0  0  0
 11 12  2  0  0  0  0
 11 29  1  0  0  0  0
 12 13  1  0  0  0  0
 13 14  2  0  0  0  0
 13 19  1  0  0  0  0
 14 15  1  0  0  0  0
 15 16  2  0  0  0  0
 16 17  1  0  0  0  0
 18 16  1  0  0  0  0
 19 18  2  0  0  0  0
 20 19  1  0  0  0  0
 20 21  2  0  0  0  0
 21 38  1  0  0  0  0
 22 23  1  0  0  0  0
 22 21  1  0  0  0  0
 24 23  2  0  0  0  0
 25 24  1  0  0  0  0
 26 25  2  0  0  0  0
 26 27  1  0  0  0  0
 27 22  2  0  0  0  0
 28 27  1  0  0  0  0
 28 20  1  0  0  0  0
 29 28  1  0  0  0  0
 30 25  1  0  0  0  0
 31 30  2  0  0  0  0
 32 30  1  0  0  0  0
 32 37  1  0  0  0  0
 33 35  2  0  0  0  0
 33 32  1  0  0  0  0
 34 33  2  0  0  0  0
 36  8  1  0  0  0  0
 38 39  1  0  0  0  0
 39 40  1  0  0  0  0
 41 40  1  0  0  0  0
 42 41  1  0  0  0  0
 43 38  1  0  0  0  0
 43 42  1  0  0  0  0
M  END
>  <minimizedAffinity>
-4.20078278

$$$$
