
 OpenBabel09092210413D

 43 48  0  0  0  0  0  0  0  0999 V2000
   11.5150   -7.1380    3.8920 C   0  0  0  0  0  1  0  0  0  0  0  0
   11.3630   -8.6070    3.7680 N   0  0  0  0  0  0  0  0  0  0  0  0
   12.6230   -9.2760    3.3440 C   0  0  0  0  0  2  0  0  0  0  0  0
   12.8640   -9.1250    1.8310 C   0  0  0  0  0  2  0  0  0  0  0  0
   11.8430   -9.8710    0.9610 C   0  0  0  0  0  2  0  0  0  0  0  0
   10.5860   -9.0570    0.6230 C   0  0  0  0  0  2  0  0  0  0  0  0
   10.7230   -8.1590   -0.6080 C   0  0  0  0  0  2  0  0  0  0  0  0
   10.5990   -8.9420   -1.8240 N   0  0  0  0  0  0  0  0  0  0  0  0
    9.5360   -9.0760   -2.6610 C   0  0  0  0  0  0  0  0  0  0  0  0
    9.5560   -9.9090   -3.5640 O   0  0  0  0  0  0  0  0  0  0  0  0
    8.3750   -8.1750   -2.5200 C   0  0  0  0  0  0  0  0  0  0  0  0
    8.3650   -7.1020   -3.3320 C   0  0  0  0  0  3  0  0  0  0  0  0
    7.1680   -6.2690   -3.5510 C   0  0  0  0  0  0  0  0  0  0  0  0
    6.9820   -5.7940   -4.8640 C   0  0  0  0  0  3  0  0  0  0  0  0
    5.8460   -5.0640   -5.2140 C   0  0  0  0  0  3  0  0  0  0  0  0
    4.8760   -4.8110   -4.2540 C   0  0  0  0  0  0  0  0  0  0  0  0
    3.4600   -3.9330   -4.6800 Cl  0  0  0  0  0  0  0  0  0  0  0  0
    5.0450   -5.2600   -2.9460 C   0  0  0  0  0  3  0  0  0  0  0  0
    6.2040   -5.9590   -2.5630 C   0  0  0  0  0  0  0  0  0  0  0  0
    6.3630   -6.3390   -1.1430 C   0  0  0  0  0  0  0  0  0  0  0  0
    6.1870   -5.5760    0.0180 C   0  0  0  0  0  0  0  0  0  0  0  0
    6.4830   -6.4310    1.1350 C   0  0  0  0  0  0  0  0  0  0  0  0
    6.4900   -6.2480    2.5370 C   0  0  0  0  0  3  0  0  0  0  0  0
    6.9920   -7.2470    3.3810 C   0  0  0  0  0  3  0  0  0  0  0  0
    7.4440   -8.4510    2.8460 C   0  0  0  0  0  0  0  0  0  0  0  0
    7.3020   -8.7080    1.4730 C   0  0  0  0  0  3  0  0  0  0  0  0
    6.8740   -7.6690    0.6290 C   0  0  0  0  0  0  0  0  0  0  0  0
    6.8050   -7.5910   -0.7460 N   0  0  0  0  0  0  0  0  0  0  0  0
    7.2300   -8.6380   -1.6780 C   0  0  0  0  0  2  0  0  0  0  0  0
    8.2750   -9.4260    3.6120 C   0  0  0  0  0  0  0  0  0  0  0  0
    8.3840  -10.5780    3.2250 O   0  0  0  0  0  0  0  0  0  0  0  0
    9.0000   -8.8720    4.6800 N   0  0  0  0  0  0  0  0  0  0  0  0
   10.5420   -9.3540    5.0660 S   0  0  0  0  0  0  0  0  0  0  0  0
   10.6670  -10.7840    4.9700 O   0  0  0  0  0  0  0  0  0  0  0  0
   10.9060   -8.6340    6.2650 O   0  0  0  0  0  0  0  0  0  0  0  0
   11.3590   -9.5700   -2.0580 H   0  0  0  0  0  0  0  0  0  0  0  0
    8.8590   -7.9130    4.9620 H   0  0  0  0  0  0  0  0  0  0  0  0
    5.8190   -4.1040    0.0880 C   0  0  0  0  0  3  0  0  0  0  0  0
    4.3620   -3.8850    0.5280 C   0  0  0  0  0  2  0  0  0  0  0  0
    4.0030   -2.4010    0.5580 C   0  0  0  0  0  2  0  0  0  0  0  0
    4.9750   -1.6030    1.4230 C   0  0  0  0  0  2  0  0  0  0  0  0
    6.4210   -1.8080    0.9780 C   0  0  0  0  0  2  0  0  0  0  0  0
    6.7970   -3.2880    0.9520 C   0  0  0  0  0  2  0  0  0  0  0  0
  2  1  1  0  0  0  0
  2 33  1  0  0  0  0
  3  2  1  0  0  0  0
  4  3  1  0  0  0  0
  5  4  1  0  0  0  0
  6  5  1  0  0  0  0
  7  6  1  0  0  0  0
  8  7  1  0  0  0  0
  9 11  1  0  0  0  0
  9  8  1  0  0  0  0
 10  9  2  0  0  0  0
 11 29  1  0  0  0  0
 12 11  2  0  0  0  0
 13 12  1  0  0  0  0
 13 19  1  0  0  0  0
 14 13  2  0  0  0  0
 15 14  1  0  0  0  0
 15 16  2  0  0  0  0
 16 18  1  0  0  0  0
 17 16  1  0  0  0  0
 18 19  2  0  0  0  0
 19 20  1  0  0  0  0
 20 28  1  0  0  0  0
 20 21  2  0  0  0  0
 21 38  1  0  0  0  0
 21 22  1  0  0  0  0
 22 23  1  0  0  0  0
 23 24  2  0  0  0  0
 25 24  1  0  0  0  0
 25 30  1  0  0  0  0
 26 25  2  0  0  0  0
 27 22  2  0  0  0  0
 27 26  1  0  0  0  0
 28 27  1  0  0  0  0
 29 28  1  0  0  0  0
 30 32  1  0  0  0  0
 31 30  2  0  0  0  0
 32 37  1  0  0  0  0
 32 33  1  0  0  0  0
 33 35  2  0  0  0  0
 34 33  2  0  0  0  0
 36  8  1  0  0  0  0
 38 39  1  0  0  0  0
 38 43  1  0  0  0  0
 39 40  1  0  0  0  0
 40 41  1  0  0  0  0
 42 41  1  0  0  0  0
 43 42  1  0  0  0  0
M  END
>  <minimizedAffinity>
-4.3809371

$$$$
