
 OpenBabel09092210413D

 43 48  0  0  0  0  0  0  0  0999 V2000
    5.8120   -8.9880   -5.2290 C   0  0  0  0  0  1  0  0  0  0  0  0
    7.1300   -8.3150   -5.1380 N   0  0  0  0  0  0  0  0  0  0  0  0
    8.1370   -9.1340   -4.4100 C   0  0  0  0  0  2  0  0  0  0  0  0
    7.9380   -9.0560   -2.8860 C   0  0  0  0  0  2  0  0  0  0  0  0
    8.2210   -7.6680   -2.2920 C   0  0  0  0  0  2  0  0  0  0  0  0
    7.0090   -6.7260   -2.2810 C   0  0  0  0  0  2  0  0  0  0  0  0
    6.1000   -6.8750   -1.0610 C   0  0  0  0  0  2  0  0  0  0  0  0
    6.6830   -6.2110    0.0920 N   0  0  0  0  0  0  0  0  0  0  0  0
    6.3800   -5.0050    0.6390 C   0  0  0  0  0  0  0  0  0  0  0  0
    7.0880   -4.5270    1.5230 O   0  0  0  0  0  0  0  0  0  0  0  0
    5.1620   -4.2900    0.2080 C   0  0  0  0  0  0  0  0  0  0  0  0
    4.0780   -4.4630    0.9860 C   0  0  0  0  0  3  0  0  0  0  0  0
    2.8780   -3.6090    0.8970 C   0  0  0  0  0  0  0  0  0  0  0  0
    2.2510   -3.3000    2.1190 C   0  0  0  0  0  3  0  0  0  0  0  0
    1.1570   -2.4360    2.1720 C   0  0  0  0  0  3  0  0  0  0  0  0
    0.6860   -1.8620    1.0000 C   0  0  0  0  0  0  0  0  0  0  0  0
   -0.6480   -0.7760    1.0550 Cl  0  0  0  0  0  0  0  0  0  0  0  0
    1.2820   -2.1640   -0.2230 C   0  0  0  0  0  3  0  0  0  0  0  0
    2.3580   -3.0660   -0.3020 C   0  0  0  0  0  0  0  0  0  0  0  0
    2.8950   -3.4090   -1.6350 C   0  0  0  0  0  0  0  0  0  0  0  0
    2.2260   -3.7790   -2.8080 C   0  0  0  0  0  0  0  0  0  0  0  0
    3.2290   -4.0130   -3.8120 C   0  0  0  0  0  0  0  0  0  0  0  0
    3.1860   -4.4070   -5.1700 C   0  0  0  0  0  3  0  0  0  0  0  0
    4.3670   -4.7150   -5.8560 C   0  0  0  0  0  3  0  0  0  0  0  0
    5.5990   -4.5890   -5.2180 C   0  0  0  0  0  0  0  0  0  0  0  0
    5.6680   -4.0540   -3.9220 C   0  0  0  0  0  3  0  0  0  0  0  0
    4.4750   -3.8260   -3.2180 C   0  0  0  0  0  0  0  0  0  0  0  0
    4.2530   -3.4730   -1.9030 N   0  0  0  0  0  0  0  0  0  0  0  0
    5.2930   -3.2840   -0.8880 C   0  0  0  0  0  2  0  0  0  0  0  0
    6.8600   -5.1870   -5.7480 C   0  0  0  0  0  0  0  0  0  0  0  0
    7.9430   -4.8010   -5.3400 O   0  0  0  0  0  0  0  0  0  0  0  0
    6.6770   -6.2840   -6.6060 N   0  0  0  0  0  0  0  0  0  0  0  0
    7.6760   -7.6120   -6.5940 S   0  0  0  0  0  0  0  0  0  0  0  0
    9.0510   -7.2110   -6.4620 O   0  0  0  0  0  0  0  0  0  0  0  0
    7.2300   -8.4670   -7.6700 O   0  0  0  0  0  0  0  0  0  0  0  0
    7.5040   -6.6340    0.5110 H   0  0  0  0  0  0  0  0  0  0  0  0
    5.7560   -6.5510   -6.9200 H   0  0  0  0  0  0  0  0  0  0  0  0
    0.7280   -3.9670   -2.9760 C   0  0  0  0  0  3  0  0  0  0  0  0
    0.1280   -2.9920   -4.0020 C   0  0  0  0  0  2  0  0  0  0  0  0
   -1.3840   -3.1730   -4.1290 C   0  0  0  0  0  2  0  0  0  0  0  0
   -1.7530   -4.6190   -4.4490 C   0  0  0  0  0  2  0  0  0  0  0  0
   -1.1690   -5.5880   -3.4240 C   0  0  0  0  0  2  0  0  0  0  0  0
    0.3440   -5.4230   -3.2920 C   0  0  0  0  0  2  0  0  0  0  0  0
  1  2  1  0  0  0  0
  2  3  1  0  0  0  0
  3  4  1  0  0  0  0
  4  5  1  0  0  0  0
  5  6  1  0  0  0  0
  6  7  1  0  0  0  0
  7  8  1  0  0  0  0
  8 36  1  0  0  0  0
  8  9  1  0  0  0  0
  9 10  2  0  0  0  0
 11  9  1  0  0  0  0
 11 12  2  0  0  0  0
 13 12  1  0  0  0  0
 13 14  1  0  0  0  0
 14 15  2  0  0  0  0
 16 17  1  0  0  0  0
 16 15  1  0  0  0  0
 18 16  2  0  0  0  0
 19 18  1  0  0  0  0
 19 13  2  0  0  0  0
 20 19  1  0  0  0  0
 21 20  2  0  0  0  0
 22 27  1  0  0  0  0
 22 21  1  0  0  0  0
 23 22  2  0  0  0  0
 24 25  2  0  0  0  0
 24 23  1  0  0  0  0
 25 26  1  0  0  0  0
 26 27  2  0  0  0  0
 27 28  1  0  0  0  0
 28 20  1  0  0  0  0
 28 29  1  0  0  0  0
 29 11  1  0  0  0  0
 30 31  2  0  0  0  0
 30 25  1  0  0  0  0
 32 33  1  0  0  0  0
 32 30  1  0  0  0  0
 33 34  2  0  0  0  0
 33  2  1  0  0  0  0
 35 33  2  0  0  0  0
 37 32  1  0  0  0  0
 38 21  1  0  0  0  0
 39 38  1  0  0  0  0
 40 39  1  0  0  0  0
 41 40  1  0  0  0  0
 41 42  1  0  0  0  0
 42 43  1  0  0  0  0
 43 38  1  0  0  0  0
M  END
>  <minimizedAffinity>
-5.17170858

$$$$
