
 OpenBabel09092210413D

 43 48  0  0  0  0  0  0  0  0999 V2000
    0.3820   -5.7610   -3.1130 C   0  0  0  0  0  1  0  0  0  0  0  0
    0.6950   -4.7840   -4.1820 N   0  0  0  0  0  0  0  0  0  0  0  0
    0.0850   -5.1550   -5.4880 C   0  0  0  0  0  2  0  0  0  0  0  0
    0.8880   -6.2600   -6.1960 C   0  0  0  0  0  2  0  0  0  0  0  0
    2.2860   -5.8170   -6.6540 C   0  0  0  0  0  2  0  0  0  0  0  0
    3.3830   -5.9960   -5.5970 C   0  0  0  0  0  2  0  0  0  0  0  0
    4.0190   -7.3870   -5.5710 C   0  0  0  0  0  2  0  0  0  0  0  0
    4.9760   -7.5280   -6.6540 N   0  0  0  0  0  0  0  0  0  0  0  0
    6.3330   -7.4560   -6.6230 C   0  0  0  0  0  0  0  0  0  0  0  0
    6.9790   -7.4430   -7.6680 O   0  0  0  0  0  0  0  0  0  0  0  0
    7.0370   -7.4530   -5.3250 C   0  0  0  0  0  0  0  0  0  0  0  0
    7.4930   -8.6470   -4.9050 C   0  0  0  0  0  3  0  0  0  0  0  0
    8.4670   -8.7960   -3.8070 C   0  0  0  0  0  0  0  0  0  0  0  0
    9.4320   -9.8070   -3.9750 C   0  0  0  0  0  3  0  0  0  0  0  0
   10.4540   -9.9920   -3.0440 C   0  0  0  0  0  3  0  0  0  0  0  0
   10.5280   -9.1560   -1.9380 C   0  0  0  0  0  0  0  0  0  0  0  0
   11.7980   -9.3590   -0.7960 Cl  0  0  0  0  0  0  0  0  0  0  0  0
    9.5760   -8.1570   -1.7450 C   0  0  0  0  0  3  0  0  0  0  0  0
    8.5130   -7.9840   -2.6490 C   0  0  0  0  0  0  0  0  0  0  0  0
    7.4890   -6.9610   -2.3480 C   0  0  0  0  0  0  0  0  0  0  0  0
    6.7960   -6.7040   -1.1590 C   0  0  0  0  0  0  0  0  0  0  0  0
    5.9070   -5.6040   -1.4170 C   0  0  0  0  0  0  0  0  0  0  0  0
    4.9640   -4.8990   -0.6330 C   0  0  0  0  0  3  0  0  0  0  0  0
    4.1120   -3.9570   -1.2240 C   0  0  0  0  0  3  0  0  0  0  0  0
    4.2220   -3.6730   -2.5840 C   0  0  0  0  0  0  0  0  0  0  0  0
    5.2530   -4.2500   -3.3420 C   0  0  0  0  0  3  0  0  0  0  0  0
    6.0460   -5.2510   -2.7570 C   0  0  0  0  0  0  0  0  0  0  0  0
    6.9970   -6.0870   -3.3040 N   0  0  0  0  0  0  0  0  0  0  0  0
    7.3760   -6.1310   -4.7190 C   0  0  0  0  0  2  0  0  0  0  0  0
    3.1740   -2.9410   -3.3540 C   0  0  0  0  0  0  0  0  0  0  0  0
    3.4390   -2.4480   -4.4380 O   0  0  0  0  0  0  0  0  0  0  0  0
    1.8840   -3.0040   -2.8020 N   0  0  0  0  0  0  0  0  0  0  0  0
    0.5140   -3.1470   -3.7310 S   0  0  0  0  0  0  0  0  0  0  0  0
    0.5980   -2.3040   -4.8930 O   0  0  0  0  0  0  0  0  0  0  0  0
   -0.6050   -3.0810   -2.8190 O   0  0  0  0  0  0  0  0  0  0  0  0
    4.6110   -7.5890   -7.5980 H   0  0  0  0  0  0  0  0  0  0  0  0
    1.7270   -3.4150   -1.8940 H   0  0  0  0  0  0  0  0  0  0  0  0
    6.9070   -7.4810    0.1410 C   0  0  0  0  0  3  0  0  0  0  0  0
    7.1970   -6.5700    1.3450 C   0  0  0  0  0  2  0  0  0  0  0  0
    7.3400   -7.3740    2.6360 C   0  0  0  0  0  2  0  0  0  0  0  0
    6.1230   -8.2610    2.8850 C   0  0  0  0  0  2  0  0  0  0  0  0
    5.8420   -9.1770    1.6960 C   0  0  0  0  0  2  0  0  0  0  0  0
    5.6880   -8.3840    0.4000 C   0  0  0  0  0  2  0  0  0  0  0  0
  2 33  1  0  0  0  0
  2  1  1  0  0  0  0
  3  2  1  0  0  0  0
  4  3  1  0  0  0  0
  5  4  1  0  0  0  0
  5  6  1  0  0  0  0
  6  7  1  0  0  0  0
  8  9  1  0  0  0  0
  8  7  1  0  0  0  0
  9 11  1  0  0  0  0
 10  9  2  0  0  0  0
 11 12  2  0  0  0  0
 11 29  1  0  0  0  0
 12 13  1  0  0  0  0
 13 19  1  0  0  0  0
 14 13  2  0  0  0  0
 14 15  1  0  0  0  0
 15 16  2  0  0  0  0
 16 18  1  0  0  0  0
 16 17  1  0  0  0  0
 19 20  1  0  0  0  0
 19 18  2  0  0  0  0
 20 21  2  0  0  0  0
 21 38  1  0  0  0  0
 22 21  1  0  0  0  0
 22 23  1  0  0  0  0
 24 23  2  0  0  0  0
 25 24  1  0  0  0  0
 26 27  1  0  0  0  0
 26 25  2  0  0  0  0
 27 22  2  0  0  0  0
 28 27  1  0  0  0  0
 28 20  1  0  0  0  0
 29 28  1  0  0  0  0
 30 32  1  0  0  0  0
 30 25  1  0  0  0  0
 31 30  2  0  0  0  0
 32 37  1  0  0  0  0
 33 35  2  0  0  0  0
 33 32  1  0  0  0  0
 34 33  2  0  0  0  0
 36  8  1  0  0  0  0
 38 43  1  0  0  0  0
 38 39  1  0  0  0  0
 39 40  1  0  0  0  0
 40 41  1  0  0  0  0
 42 41  1  0  0  0  0
 43 42  1  0  0  0  0
M  END
>  <minimizedAffinity>
-4.42366886

$$$$
