
 OpenBabel09092210413D

 43 48  0  0  0  0  0  0  0  0999 V2000
    5.8940   -9.3920   -5.5730 C   0  0  0  0  0  1  0  0  0  0  0  0
    7.1960   -8.8470   -5.1200 N   0  0  0  0  0  0  0  0  0  0  0  0
    7.8670   -9.7290   -4.1270 C   0  0  0  0  0  2  0  0  0  0  0  0
    7.2570   -9.5700   -2.7230 C   0  0  0  0  0  2  0  0  0  0  0  0
    7.5040   -8.1940   -2.0880 C   0  0  0  0  0  2  0  0  0  0  0  0
    6.4430   -7.1400   -2.4320 C   0  0  0  0  0  2  0  0  0  0  0  0
    5.2170   -7.1520   -1.5180 C   0  0  0  0  0  2  0  0  0  0  0  0
    5.5190   -6.5010   -0.2550 N   0  0  0  0  0  0  0  0  0  0  0  0
    5.2010   -5.2500    0.1700 C   0  0  0  0  0  0  0  0  0  0  0  0
    5.6770   -4.8080    1.2130 O   0  0  0  0  0  0  0  0  0  0  0  0
    4.2340   -4.4400   -0.5960 C   0  0  0  0  0  0  0  0  0  0  0  0
    2.9630   -4.4760   -0.1560 C   0  0  0  0  0  3  0  0  0  0  0  0
    1.9320   -3.5140   -0.5910 C   0  0  0  0  0  0  0  0  0  0  0  0
    1.0220   -3.0980    0.4000 C   0  0  0  0  0  3  0  0  0  0  0  0
    0.0540   -2.1310    0.1310 C   0  0  0  0  0  3  0  0  0  0  0  0
   -0.0080   -1.5620   -1.1340 C   0  0  0  0  0  0  0  0  0  0  0  0
   -1.1830   -0.3510   -1.4710 Cl  0  0  0  0  0  0  0  0  0  0  0  0
    0.8730   -1.9680   -2.1330 C   0  0  0  0  0  3  0  0  0  0  0  0
    1.8280   -2.9730   -1.8940 C   0  0  0  0  0  0  0  0  0  0  0  0
    2.6800   -3.4190   -3.0170 C   0  0  0  0  0  0  0  0  0  0  0  0
    2.3330   -3.7690   -4.3270 C   0  0  0  0  0  0  0  0  0  0  0  0
    3.5470   -4.1390   -5.0020 C   0  0  0  0  0  0  0  0  0  0  0  0
    3.8470   -4.5810   -6.3120 C   0  0  0  0  0  3  0  0  0  0  0  0
    5.1350   -5.0290   -6.6320 C   0  0  0  0  0  3  0  0  0  0  0  0
    6.1440   -4.9970   -5.6720 C   0  0  0  0  0  0  0  0  0  0  0  0
    5.9020   -4.4190   -4.4160 C   0  0  0  0  0  3  0  0  0  0  0  0
    4.5890   -4.0490   -4.0810 C   0  0  0  0  0  0  0  0  0  0  0  0
    4.0450   -3.6240   -2.8870 N   0  0  0  0  0  0  0  0  0  0  0  0
    4.7720   -3.4960   -1.6210 C   0  0  0  0  0  2  0  0  0  0  0  0
    7.4340   -5.7340   -5.8160 C   0  0  0  0  0  0  0  0  0  0  0  0
    8.3930   -5.4380   -5.1220 O   0  0  0  0  0  0  0  0  0  0  0  0
    7.3870   -6.8420   -6.6790 N   0  0  0  0  0  0  0  0  0  0  0  0
    8.1990   -8.2580   -6.3690 S   0  0  0  0  0  0  0  0  0  0  0  0
    9.5160   -7.9870   -5.8570 O   0  0  0  0  0  0  0  0  0  0  0  0
    7.9860   -9.1090   -7.5180 O   0  0  0  0  0  0  0  0  0  0  0  0
    6.1400   -6.9840    0.3840 H   0  0  0  0  0  0  0  0  0  0  0  0
    6.5680   -7.0310   -7.2370 H   0  0  0  0  0  0  0  0  0  0  0  0
    0.9320   -3.8190   -4.9110 C   0  0  0  0  0  3  0  0  0  0  0  0
    0.7460   -2.8280   -6.0720 C   0  0  0  0  0  2  0  0  0  0  0  0
   -0.6790   -2.8680   -6.6210 C   0  0  0  0  0  2  0  0  0  0  0  0
   -1.0890   -4.2830   -7.0200 C   0  0  0  0  0  2  0  0  0  0  0  0
   -0.9190   -5.2650   -5.8640 C   0  0  0  0  0  2  0  0  0  0  0  0
    0.5050   -5.2420   -5.3110 C   0  0  0  0  0  2  0  0  0  0  0  0
  1  2  1  0  0  0  0
  2  3  1  0  0  0  0
  3  4  1  0  0  0  0
  4  5  1  0  0  0  0
  6  5  1  0  0  0  0
  6  7  1  0  0  0  0
  7  8  1  0  0  0  0
  8  9  1  0  0  0  0
  8 36  1  0  0  0  0
  9 10  2  0  0  0  0
 11 12  2  0  0  0  0
 11  9  1  0  0  0  0
 13 12  1  0  0  0  0
 13 14  1  0  0  0  0
 15 14  2  0  0  0  0
 16 15  1  0  0  0  0
 17 16  1  0  0  0  0
 18 19  1  0  0  0  0
 18 16  2  0  0  0  0
 19 13  2  0  0  0  0
 20 28  1  0  0  0  0
 20 19  1  0  0  0  0
 21 20  2  0  0  0  0
 22 21  1  0  0  0  0
 22 27  1  0  0  0  0
 23 22  2  0  0  0  0
 24 23  1  0  0  0  0
 24 25  2  0  0  0  0
 25 26  1  0  0  0  0
 26 27  2  0  0  0  0
 27 28  1  0  0  0  0
 28 29  1  0  0  0  0
 29 11  1  0  0  0  0
 30 25  1  0  0  0  0
 30 31  2  0  0  0  0
 32 33  1  0  0  0  0
 32 30  1  0  0  0  0
 33 34  2  0  0  0  0
 33  2  1  0  0  0  0
 35 33  2  0  0  0  0
 37 32  1  0  0  0  0
 38 21  1  0  0  0  0
 39 38  1  0  0  0  0
 40 39  1  0  0  0  0
 41 40  1  0  0  0  0
 41 42  1  0  0  0  0
 42 43  1  0  0  0  0
 43 38  1  0  0  0  0
M  END
>  <minimizedAffinity>
-4.8761487

$$$$
