
 OpenBabel09092210413D

 43 48  0  0  0  0  0  0  0  0999 V2000
    7.9450   -7.7410    2.8530 C   0  0  0  0  0  1  0  0  0  0  0  0
    6.8040   -7.3290    3.7050 N   0  0  0  0  0  0  0  0  0  0  0  0
    5.5550   -7.1240    2.9230 C   0  0  0  0  0  2  0  0  0  0  0  0
    5.5590   -5.7710    2.1900 C   0  0  0  0  0  2  0  0  0  0  0  0
    5.5060   -4.5550    3.1270 C   0  0  0  0  0  2  0  0  0  0  0  0
    6.8800   -4.0600    3.5980 C   0  0  0  0  0  2  0  0  0  0  0  0
    7.5630   -3.0800    2.6430 C   0  0  0  0  0  2  0  0  0  0  0  0
    6.9880   -1.7530    2.7800 N   0  0  0  0  0  0  0  0  0  0  0  0
    7.4680   -0.6670    3.4400 C   0  0  0  0  0  0  0  0  0  0  0  0
    6.7690    0.3330    3.5850 O   0  0  0  0  0  0  0  0  0  0  0  0
    8.8590   -0.6670    3.9360 C   0  0  0  0  0  0  0  0  0  0  0  0
    9.7660   -0.0780    3.1340 C   0  0  0  0  0  3  0  0  0  0  0  0
   11.1230    0.2860    3.5830 C   0  0  0  0  0  0  0  0  0  0  0  0
   11.6310    1.5000    3.0810 C   0  0  0  0  0  3  0  0  0  0  0  0
   12.8690    1.9910    3.4960 C   0  0  0  0  0  3  0  0  0  0  0  0
   13.6070    1.2760    4.4290 C   0  0  0  0  0  0  0  0  0  0  0  0
   15.1240    1.8840    4.9670 Cl  0  0  0  0  0  0  0  0  0  0  0  0
   13.1300    0.0670    4.9290 C   0  0  0  0  0  3  0  0  0  0  0  0
   11.9050   -0.4670    4.4900 C   0  0  0  0  0  0  0  0  0  0  0  0
   11.4900   -1.7930    4.9960 C   0  0  0  0  0  0  0  0  0  0  0  0
   12.2150   -2.9870    5.0920 C   0  0  0  0  0  0  0  0  0  0  0  0
   11.3300   -3.9760    5.6440 C   0  0  0  0  0  0  0  0  0  0  0  0
   11.4690   -5.3450    5.9720 C   0  0  0  0  0  3  0  0  0  0  0  0
   10.3530   -6.1000    6.3530 C   0  0  0  0  0  3  0  0  0  0  0  0
    9.1030   -5.4940    6.4590 C   0  0  0  0  0  0  0  0  0  0  0  0
    8.9770   -4.1070    6.2870 C   0  0  0  0  0  3  0  0  0  0  0  0
   10.0860   -3.3770    5.8270 C   0  0  0  0  0  0  0  0  0  0  0  0
   10.1990   -2.0630    5.4210 N   0  0  0  0  0  0  0  0  0  0  0  0
    9.0980   -1.1000    5.3450 C   0  0  0  0  0  2  0  0  0  0  0  0
    7.8260   -6.2620    6.5420 C   0  0  0  0  0  0  0  0  0  0  0  0
    6.8080   -5.7200    6.9410 O   0  0  0  0  0  0  0  0  0  0  0  0
    7.8800   -7.5570    6.0030 N   0  0  0  0  0  0  0  0  0  0  0  0
    6.6250   -8.2280    5.1450 S   0  0  0  0  0  0  0  0  0  0  0  0
    5.3640   -7.9190    5.7650 O   0  0  0  0  0  0  0  0  0  0  0  0
    7.0160   -9.5870    4.8460 O   0  0  0  0  0  0  0  0  0  0  0  0
    6.0460   -1.6120    2.4320 H   0  0  0  0  0  0  0  0  0  0  0  0
    8.7550   -7.9580    5.6990 H   0  0  0  0  0  0  0  0  0  0  0  0
   13.6450   -3.2180    4.6360 C   0  0  0  0  0  3  0  0  0  0  0  0
   14.6180   -3.3740    5.8160 C   0  0  0  0  0  2  0  0  0  0  0  0
   16.0550   -3.5700    5.3360 C   0  0  0  0  0  2  0  0  0  0  0  0
   16.1680   -4.7370    4.3590 C   0  0  0  0  0  2  0  0  0  0  0  0
   15.2130   -4.5760    3.1790 C   0  0  0  0  0  2  0  0  0  0  0  0
   13.7710   -4.3890    3.6440 C   0  0  0  0  0  2  0  0  0  0  0  0
  1  2  1  0  0  0  0
  2 33  1  0  0  0  0
  3  2  1  0  0  0  0
  4  3  1  0  0  0  0
  4  5  1  0  0  0  0
  5  6  1  0  0  0  0
  7  8  1  0  0  0  0
  7  6  1  0  0  0  0
  8  9  1  0  0  0  0
  9 10  2  0  0  0  0
  9 11  1  0  0  0  0
 11 29  1  0  0  0  0
 12 13  1  0  0  0  0
 12 11  2  0  0  0  0
 13 19  1  0  0  0  0
 14 15  1  0  0  0  0
 14 13  2  0  0  0  0
 15 16  2  0  0  0  0
 16 18  1  0  0  0  0
 16 17  1  0  0  0  0
 19 18  2  0  0  0  0
 19 20  1  0  0  0  0
 20 21  2  0  0  0  0
 20 28  1  0  0  0  0
 21 22  1  0  0  0  0
 22 27  2  0  0  0  0
 22 23  1  0  0  0  0
 23 24  2  0  0  0  0
 24 25  1  0  0  0  0
 25 30  1  0  0  0  0
 26 25  2  0  0  0  0
 27 26  1  0  0  0  0
 28 27  1  0  0  0  0
 29 28  1  0  0  0  0
 30 31  2  0  0  0  0
 32 30  1  0  0  0  0
 33 34  2  0  0  0  0
 33 32  1  0  0  0  0
 35 33  2  0  0  0  0
 36  8  1  0  0  0  0
 37 32  1  0  0  0  0
 38 21  1  0  0  0  0
 38 39  1  0  0  0  0
 40 39  1  0  0  0  0
 41 40  1  0  0  0  0
 42 43  1  0  0  0  0
 42 41  1  0  0  0  0
 43 38  1  0  0  0  0
M  END
>  <minimizedAffinity>
-4.49912786

$$$$
