
 OpenBabel09092210413D

 43 48  0  0  0  0  0  0  0  0999 V2000
    7.1560   -9.0000    1.8190 C   0  0  0  0  0  1  0  0  0  0  0  0
    5.7480   -8.5800    2.0130 N   0  0  0  0  0  0  0  0  0  0  0  0
    4.9820   -8.5520    0.7370 C   0  0  0  0  0  2  0  0  0  0  0  0
    5.2960   -7.2900   -0.0860 C   0  0  0  0  0  2  0  0  0  0  0  0
    4.8080   -5.9860    0.5640 C   0  0  0  0  0  2  0  0  0  0  0  0
    5.8150   -5.3460    1.5280 C   0  0  0  0  0  2  0  0  0  0  0  0
    6.8400   -4.4290    0.8590 C   0  0  0  0  0  2  0  0  0  0  0  0
    6.2450   -3.1400    0.5520 N   0  0  0  0  0  0  0  0  0  0  0  0
    6.3600   -1.9560    1.2100 C   0  0  0  0  0  0  0  0  0  0  0  0
    5.6560   -0.9990    0.8970 O   0  0  0  0  0  0  0  0  0  0  0  0
    7.3790   -1.8030    2.2680 C   0  0  0  0  0  0  0  0  0  0  0  0
    8.5400   -1.2420    1.8840 C   0  0  0  0  0  3  0  0  0  0  0  0
    9.5430   -0.7340    2.8390 C   0  0  0  0  0  0  0  0  0  0  0  0
   10.2050    0.4510    2.4630 C   0  0  0  0  0  3  0  0  0  0  0  0
   11.1160    1.0710    3.3180 C   0  0  0  0  0  3  0  0  0  0  0  0
   11.3650    0.5180    4.5660 C   0  0  0  0  0  0  0  0  0  0  0  0
   12.4680    1.2880    5.6390 Cl  0  0  0  0  0  0  0  0  0  0  0  0
   10.7320   -0.6610    4.9540 C   0  0  0  0  0  3  0  0  0  0  0  0
    9.8440   -1.3260    4.0890 C   0  0  0  0  0  0  0  0  0  0  0  0
    9.2660   -2.6150    4.5240 C   0  0  0  0  0  0  0  0  0  0  0  0
    9.8880   -3.7360    5.0870 C   0  0  0  0  0  0  0  0  0  0  0  0
    8.8640   -4.7200    5.3110 C   0  0  0  0  0  0  0  0  0  0  0  0
    8.8610   -6.0320    5.8400 C   0  0  0  0  0  3  0  0  0  0  0  0
    7.7040   -6.8190    5.7790 C   0  0  0  0  0  3  0  0  0  0  0  0
    6.5310   -6.2960    5.2380 C   0  0  0  0  0  0  0  0  0  0  0  0
    6.4760   -4.9480    4.8500 C   0  0  0  0  0  3  0  0  0  0  0  0
    7.6610   -4.1950    4.8410 C   0  0  0  0  0  0  0  0  0  0  0  0
    7.9270   -2.9290    4.3610 N   0  0  0  0  0  0  0  0  0  0  0  0
    6.9630   -2.0610    3.6790 C   0  0  0  0  0  2  0  0  0  0  0  0
    5.3650   -7.1390    4.8430 C   0  0  0  0  0  0  0  0  0  0  0  0
    4.2690   -6.6320    4.6720 O   0  0  0  0  0  0  0  0  0  0  0  0
    5.6760   -8.4790    4.5570 N   0  0  0  0  0  0  0  0  0  0  0  0
    4.9520   -9.3280    3.3260 S   0  0  0  0  0  0  0  0  0  0  0  0
    3.5430   -9.0440    3.2740 O   0  0  0  0  0  0  0  0  0  0  0  0
    5.4560  -10.6790    3.4110 O   0  0  0  0  0  0  0  0  0  0  0  0
    5.5590   -3.1050   -0.1940 H   0  0  0  0  0  0  0  0  0  0  0  0
    6.6000   -8.8460    4.7290 H   0  0  0  0  0  0  0  0  0  0  0  0
   11.3730   -3.9130    5.3490 C   0  0  0  0  0  3  0  0  0  0  0  0
   12.2320   -3.5280    4.1330 C   0  0  0  0  0  2  0  0  0  0  0  0
   13.7190   -3.7470    4.4060 C   0  0  0  0  0  2  0  0  0  0  0  0
   14.1740   -3.0180    5.6670 C   0  0  0  0  0  2  0  0  0  0  0  0
   13.3320   -3.4100    6.8780 C   0  0  0  0  0  2  0  0  0  0  0  0
   11.8420   -3.1870    6.6220 C   0  0  0  0  0  2  0  0  0  0  0  0
  1  2  1  0  0  0  0
  2 33  1  0  0  0  0
  3  2  1  0  0  0  0
  4  5  1  0  0  0  0
  4  3  1  0  0  0  0
  5  6  1  0  0  0  0
  7  6  1  0  0  0  0
  8  7  1  0  0  0  0
  8  9  1  0  0  0  0
  9 11  1  0  0  0  0
 10  9  2  0  0  0  0
 11 29  1  0  0  0  0
 12 11  2  0  0  0  0
 12 13  1  0  0  0  0
 13 19  1  0  0  0  0
 14 13  2  0  0  0  0
 14 15  1  0  0  0  0
 15 16  2  0  0  0  0
 16 18  1  0  0  0  0
 16 17  1  0  0  0  0
 19 20  1  0  0  0  0
 19 18  2  0  0  0  0
 20 21  2  0  0  0  0
 21 22  1  0  0  0  0
 21 38  1  0  0  0  0
 22 23  1  0  0  0  0
 24 23  2  0  0  0  0
 25 24  1  0  0  0  0
 26 25  2  0  0  0  0
 27 26  1  0  0  0  0
 27 22  2  0  0  0  0
 28 20  1  0  0  0  0
 28 27  1  0  0  0  0
 29 28  1  0  0  0  0
 30 25  1  0  0  0  0
 31 30  2  0  0  0  0
 32 37  1  0  0  0  0
 32 30  1  0  0  0  0
 33 35  2  0  0  0  0
 33 32  1  0  0  0  0
 34 33  2  0  0  0  0
 36  8  1  0  0  0  0
 38 43  1  0  0  0  0
 39 40  1  0  0  0  0
 39 38  1  0  0  0  0
 40 41  1  0  0  0  0
 41 42  1  0  0  0  0
 43 42  1  0  0  0  0
M  END
>  <minimizedAffinity>
-4.27214432

$$$$
