
 OpenBabel09092210413D

 43 48  0  0  0  0  0  0  0  0999 V2000
    1.5830   -4.4790    2.7640 C   0  0  0  0  0  1  0  0  0  0  0  0
    1.7570   -3.0140    2.6280 N   0  0  0  0  0  0  0  0  0  0  0  0
    0.4620   -2.3000    2.4660 C   0  0  0  0  0  2  0  0  0  0  0  0
   -0.0740   -2.4170    1.0280 C   0  0  0  0  0  2  0  0  0  0  0  0
    0.7820   -1.6880   -0.0170 C   0  0  0  0  0  2  0  0  0  0  0  0
    1.9200   -2.5340   -0.6030 C   0  0  0  0  0  2  0  0  0  0  0  0
    1.5160   -3.4070   -1.7930 C   0  0  0  0  0  2  0  0  0  0  0  0
    1.4270   -2.6070   -3.0020 N   0  0  0  0  0  0  0  0  0  0  0  0
    2.3100   -2.4920   -4.0290 C   0  0  0  0  0  0  0  0  0  0  0  0
    2.1420   -1.6430   -4.9010 O   0  0  0  0  0  0  0  0  0  0  0  0
    3.4450   -3.4300   -4.1270 C   0  0  0  0  0  0  0  0  0  0  0  0
    3.2600   -4.4890   -4.9370 C   0  0  0  0  0  3  0  0  0  0  0  0
    4.3630   -5.3550   -5.3950 C   0  0  0  0  0  0  0  0  0  0  0  0
    4.2730   -5.8130   -6.7240 C   0  0  0  0  0  3  0  0  0  0  0  0
    5.2930   -6.5710   -7.2970 C   0  0  0  0  0  3  0  0  0  0  0  0
    6.4230   -6.8700   -6.5480 C   0  0  0  0  0  0  0  0  0  0  0  0
    7.6990   -7.7840   -7.2520 Cl  0  0  0  0  0  0  0  0  0  0  0  0
    6.5280   -6.4380   -5.2270 C   0  0  0  0  0  3  0  0  0  0  0  0
    5.4900   -5.7100   -4.6180 C   0  0  0  0  0  0  0  0  0  0  0  0
    5.6240   -5.3510   -3.1900 C   0  0  0  0  0  0  0  0  0  0  0  0
    5.9980   -6.1380   -2.0950 C   0  0  0  0  0  0  0  0  0  0  0  0
    5.9540   -5.2940   -0.9320 C   0  0  0  0  0  0  0  0  0  0  0  0
    6.2150   -5.5010    0.4430 C   0  0  0  0  0  3  0  0  0  0  0  0
    5.9210   -4.5010    1.3790 C   0  0  0  0  0  3  0  0  0  0  0  0
    5.4130   -3.2750    0.9560 C   0  0  0  0  0  0  0  0  0  0  0  0
    5.2930   -2.9990   -0.4150 C   0  0  0  0  0  3  0  0  0  0  0  0
    5.5140   -4.0350   -1.3380 C   0  0  0  0  0  0  0  0  0  0  0  0
    5.3100   -4.0930   -2.7010 N   0  0  0  0  0  0  0  0  0  0  0  0
    4.7470   -3.0170   -3.5210 C   0  0  0  0  0  2  0  0  0  0  0  0
    4.7810   -2.2880    1.8800 C   0  0  0  0  0  0  0  0  0  0  0  0
    4.6380   -1.1270    1.5340 O   0  0  0  0  0  0  0  0  0  0  0  0
    4.2610   -2.8370    3.0630 N   0  0  0  0  0  0  0  0  0  0  0  0
    2.8400   -2.3150    3.7490 S   0  0  0  0  0  0  0  0  0  0  0  0
    2.7470   -0.8810    3.6950 O   0  0  0  0  0  0  0  0  0  0  0  0
    2.6940   -3.0440    4.9880 O   0  0  0  0  0  0  0  0  0  0  0  0
    0.6560   -1.9520   -3.0760 H   0  0  0  0  0  0  0  0  0  0  0  0
    4.4210   -3.8050    3.3020 H   0  0  0  0  0  0  0  0  0  0  0  0
    6.3230   -7.6220   -2.1130 C   0  0  0  0  0  3  0  0  0  0  0  0
    7.7860   -7.9050   -1.7370 C   0  0  0  0  0  2  0  0  0  0  0  0
    8.1010   -9.3990   -1.7970 C   0  0  0  0  0  2  0  0  0  0  0  0
    7.1350  -10.2130   -0.9400 C   0  0  0  0  0  2  0  0  0  0  0  0
    5.6820   -9.9430   -1.3220 C   0  0  0  0  0  2  0  0  0  0  0  0
    5.3510   -8.4530   -1.2580 C   0  0  0  0  0  2  0  0  0  0  0  0
  2  1  1  0  0  0  0
  2 33  1  0  0  0  0
  3  2  1  0  0  0  0
  4  3  1  0  0  0  0
  5  4  1  0  0  0  0
  6  5  1  0  0  0  0
  7  6  1  0  0  0  0
  8  7  1  0  0  0  0
  9  8  1  0  0  0  0
 10  9  2  0  0  0  0
 11  9  1  0  0  0  0
 11 29  1  0  0  0  0
 12 11  2  0  0  0  0
 13 12  1  0  0  0  0
 13 19  1  0  0  0  0
 14 13  2  0  0  0  0
 15 14  1  0  0  0  0
 15 16  2  0  0  0  0
 16 18  1  0  0  0  0
 17 16  1  0  0  0  0
 18 19  2  0  0  0  0
 19 20  1  0  0  0  0
 20 28  1  0  0  0  0
 20 21  2  0  0  0  0
 21 22  1  0  0  0  0
 22 23  1  0  0  0  0
 23 24  2  0  0  0  0
 25 24  1  0  0  0  0
 25 30  1  0  0  0  0
 26 25  2  0  0  0  0
 27 22  2  0  0  0  0
 27 26  1  0  0  0  0
 28 27  1  0  0  0  0
 29 28  1  0  0  0  0
 30 32  1  0  0  0  0
 31 30  2  0  0  0  0
 32 37  1  0  0  0  0
 32 33  1  0  0  0  0
 33 35  2  0  0  0  0
 34 33  2  0  0  0  0
 36  8  1  0  0  0  0
 38 21  1  0  0  0  0
 38 39  1  0  0  0  0
 38 43  1  0  0  0  0
 40 39  1  0  0  0  0
 40 41  1  0  0  0  0
 42 43  1  0  0  0  0
 42 41  1  0  0  0  0
M  END
>  <minimizedAffinity>
-4.68725348

$$$$
