
 OpenBabel08172209593D

 46 51  0  0  1  0  0  0  0  0999 V2000
   24.5300   31.1430   31.3370 C   0  0  0  0  0  0  0  0  0  0  0  0
   24.6150   31.4780   30.1520 O   0  0  0  0  0  0  0  0  0  0  0  0
   24.6270   29.7910   31.7750 N   0  0  0  0  0  0  0  0  0  0  0  0
   24.2660   29.3190   33.1060 C   0  0  0  0  0  0  0  0  0  0  0  0
   23.3790   30.0680   33.9030 C   0  0  0  0  0  3  0  0  0  0  0  0
   23.1280   29.7700   35.2490 C   0  0  0  0  0  3  0  0  0  0  0  0
   23.7320   28.6750   35.8450 C   0  0  0  0  0  3  0  0  0  0  0  0
   24.5160   27.8480   35.0550 C   0  0  0  0  0  0  0  0  0  0  0  0
   24.7570   28.1180   33.6830 C   0  0  0  0  0  0  0  0  0  0  0  0
   25.3800   27.0620   32.9600 N   0  0  0  0  0  0  0  0  0  0  0  0
   24.8620   26.6350   31.7500 C   0  0  0  0  0  0  0  0  0  0  0  0
   24.6800   27.5170   30.7520 C   0  0  0  0  0  0  0  0  0  0  0  0
   25.2730   28.9010   30.7740 C   0  0  2  0  0  3  0  0  0  0  0  0
   23.7330   27.1210   29.3580 S   0  0  0  0  0  0  0  0  0  0  0  0
   24.5750   27.0670   28.1790 O   0  0  0  0  0  0  0  0  0  0  0  0
   22.5470   27.9580   29.3560 O   0  0  0  0  0  0  0  0  0  0  0  0
   23.1580   25.4680   29.6320 C   0  0  0  0  0  2  0  0  0  0  0  0
   24.1690   24.5660   30.3400 C   0  0  0  0  0  0  0  0  0  0  0  0
   25.4600   24.3720   29.5210 C   0  0  0  0  0  1  0  0  0  0  0  0
   23.5290   23.1760   30.5350 C   0  0  0  0  0  1  0  0  0  0  0  0
   24.4780   25.1690   31.7220 C   0  0  0  0  0  2  0  0  0  0  0  0
   25.7120   26.3390   33.6020 H   0  0  0  0  0  0  0  0  0  0  0  0
   22.0540   34.7980   33.3580 C   0  0  0  0  0  1  0  0  0  0  0  0
   23.3340   34.0240   33.2530 C   0  0  0  0  0  0  0  0  0  0  0  0
   24.4450   34.4010   34.0040 C   0  0  0  0  0  3  0  0  0  0  0  0
   25.6260   33.6720   33.8790 C   0  0  0  0  0  3  0  0  0  0  0  0
   25.6690   32.5860   33.0110 C   0  0  0  0  0  3  0  0  0  0  0  0
   24.5120   32.2670   32.3120 C   0  0  0  0  0  0  0  0  0  0  0  0
   23.3520   32.9680   32.4090 N   0  0  0  0  0  0  0  0  0  0  0  0
   26.8170   28.9100   30.8560 C   0  0  0  0  0  0  0  0  0  0  0  0
   27.5370   29.2410   32.0150 C   0  0  0  0  0  3  0  0  0  0  0  0
   28.9330   29.1630   32.0460 C   0  0  0  0  0  3  0  0  0  0  0  0
   29.6520   28.7390   30.9280 C   0  0  0  0  0  0  0  0  0  0  0  0
   28.9610   28.4390   29.7620 C   0  0  0  0  0  3  0  0  0  0  0  0
   27.5670   28.5290   29.7370 C   0  0  0  0  0  0  0  0  0  0  0  0
   26.9500   28.2320   28.5880 F   0  0  0  0  0  0  0  0  0  0  0  0
   31.0040   28.6660   31.1100 O   0  0  0  0  0  0  0  0  0  0  0  0
   31.7130   29.8800   31.3880 C   0  0  0  0  0  2  0  0  0  0  0  0
   31.4520   30.9690   30.3700 C   0  0  0  0  0  0  0  0  0  0  0  0
   31.8340   30.7950   29.0330 C   0  0  0  0  0  3  0  0  0  0  0  0
   31.5770   31.7910   28.0890 C   0  0  0  0  0  3  0  0  0  0  0  0
   30.9280   32.9660   28.4690 C   0  0  0  0  0  3  0  0  0  0  0  0
   30.5320   33.1430   29.7920 C   0  0  0  0  0  3  0  0  0  0  0  0
   30.7870   32.1480   30.7370 C   0  0  0  0  0  3  0  0  0  0  0  0
   25.0490   26.6940   35.5820 O   0  0  0  0  0  0  0  0  0  0  0  0
   24.8050   26.6450   36.5220 H   0  0  0  0  0  0  0  0  0  0  0  0
  1  3  1  0  0  0  0
  1 28  1  0  0  0  0
  2  1  2  0  0  0  0
  3  4  1  0  0  0  0
  4  9  2  0  0  0  0
  4  5  1  0  0  0  0
  5  6  2  0  0  0  0
  6  7  1  0  0  0  0
  8 45  1  0  0  0  0
  8  7  2  0  0  0  0
  9  8  1  0  0  0  0
 10 22  1  0  0  0  0
 10  9  1  0  0  0  0
 11 10  1  0  0  0  0
 12 13  1  0  0  0  0
 12 11  2  0  0  0  0
 13 30  1  1  0  0  0
 13  3  1  0  0  0  0
 14 17  1  0  0  0  0
 14 12  1  0  0  0  0
 15 14  2  0  0  0  0
 16 14  2  0  0  0  0
 17 18  1  0  0  0  0
 18 20  1  0  0  0  0
 18 21  1  0  0  0  0
 19 18  1  0  0  0  0
 21 11  1  0  0  0  0
 24 23  1  0  0  0  0
 24 25  1  0  0  0  0
 26 25  2  0  0  0  0
 27 26  1  0  0  0  0
 28 29  1  0  0  0  0
 28 27  2  0  0  0  0
 29 24  2  0  0  0  0
 30 31  1  0  0  0  0
 31 32  2  0  0  0  0
 33 37  1  0  0  0  0
 33 32  1  0  0  0  0
 34 33  2  0  0  0  0
 35 34  1  0  0  0  0
 35 30  2  0  0  0  0
 36 35  1  0  0  0  0
 37 38  1  0  0  0  0
 39 44  1  0  0  0  0
 39 38  1  0  0  0  0
 40 39  2  0  0  0  0
 41 42  2  0  0  0  0
 41 40  1  0  0  0  0
 42 43  1  0  0  0  0
 43 44  2  0  0  0  0
 45 46  1  0  0  0  0
M  END
>  <minimizedAffinity>
-10.0038195

$$$$
