
 OpenBabel08172209593D

 46 51  0  0  1  0  0  0  0  0999 V2000
   26.9520   24.5200   13.2430 C   0  0  0  0  0  0  0  0  0  0  0  0
   25.7290   24.6830   13.2170 O   0  0  0  0  0  0  0  0  0  0  0  0
   27.7900   25.0570   14.2620 N   0  0  0  0  0  0  0  0  0  0  0  0
   29.2450   25.1260   14.1930 C   0  0  0  0  0  0  0  0  0  0  0  0
   29.8940   25.0830   12.9440 C   0  0  0  0  0  3  0  0  0  0  0  0
   31.2850   24.9660   12.8120 C   0  0  0  0  0  3  0  0  0  0  0  0
   32.0900   24.9250   13.9380 C   0  0  0  0  0  3  0  0  0  0  0  0
   31.4920   25.0860   15.1780 C   0  0  0  0  0  0  0  0  0  0  0  0
   30.0890   25.2350   15.3290 C   0  0  0  0  0  0  0  0  0  0  0  0
   29.6580   25.6220   16.6290 N   0  0  0  0  0  0  0  0  0  0  0  0
   28.7770   26.6760   16.7960 C   0  0  0  0  0  0  0  0  0  0  0  0
   27.5930   26.6630   16.1600 C   0  0  0  0  0  0  0  0  0  0  0  0
   27.0430   25.4310   15.4910 C   0  0  2  0  0  3  0  0  0  0  0  0
   26.6100   28.0840   16.0550 S   0  0  0  0  0  0  0  0  0  0  0  0
   25.3830   27.9000   16.8060 O   0  0  0  0  0  0  0  0  0  0  0  0
   26.5460   28.4960   14.6630 O   0  0  0  0  0  0  0  0  0  0  0  0
   27.5190   29.3510   16.8930 C   0  0  0  0  0  2  0  0  0  0  0  0
   28.2900   28.8580   18.1180 C   0  0  0  0  0  0  0  0  0  0  0  0
   27.3610   28.2920   19.2100 C   0  0  0  0  0  1  0  0  0  0  0  0
   29.0510   30.0530   18.7280 C   0  0  0  0  0  1  0  0  0  0  0  0
   29.3110   27.8000   17.6600 C   0  0  0  0  0  2  0  0  0  0  0  0
   30.4330   25.5570   17.2940 H   0  0  0  0  0  0  0  0  0  0  0  0
   28.1940   23.6390    8.6330 C   0  0  0  0  0  1  0  0  0  0  0  0
   28.0480   23.1340   10.0370 C   0  0  0  0  0  0  0  0  0  0  0  0
   28.3500   21.8080   10.3400 C   0  0  0  0  0  3  0  0  0  0  0  0
   28.1940   21.3600   11.6500 C   0  0  0  0  0  3  0  0  0  0  0  0
   27.7450   22.2450   12.6240 C   0  0  0  0  0  3  0  0  0  0  0  0
   27.4820   23.5540   12.2420 C   0  0  0  0  0  0  0  0  0  0  0  0
   27.6160   24.0120   10.9690 N   0  0  0  0  0  0  0  0  0  0  0  0
   26.8340   24.2440   16.4610 C   0  0  0  0  0  0  0  0  0  0  0  0
   27.5700   23.0500   16.4080 C   0  0  0  0  0  3  0  0  0  0  0  0
   27.3810   22.0410   17.3580 C   0  0  0  0  0  3  0  0  0  0  0  0
   26.4640   22.1980   18.3970 C   0  0  0  0  0  0  0  0  0  0  0  0
   25.7020   23.3580   18.4480 C   0  0  0  0  0  3  0  0  0  0  0  0
   25.8900   24.3560   17.4900 C   0  0  0  0  0  0  0  0  0  0  0  0
   25.1290   25.4520   17.5830 F   0  0  0  0  0  0  0  0  0  0  0  0
   26.4130   21.1550   19.2780 O   0  0  0  0  0  0  0  0  0  0  0  0
   26.2770   19.8310   18.7490 C   0  0  0  0  0  2  0  0  0  0  0  0
   25.0680   19.0960   19.2860 C   0  0  0  0  0  0  0  0  0  0  0  0
   23.8960   19.0090   18.5220 C   0  0  0  0  0  3  0  0  0  0  0  0
   22.7850   18.3160   19.0080 C   0  0  0  0  0  3  0  0  0  0  0  0
   22.8370   17.6970   20.2560 C   0  0  0  0  0  3  0  0  0  0  0  0
   24.0010   17.7650   21.0170 C   0  0  0  0  0  3  0  0  0  0  0  0
   25.1130   18.4560   20.5330 C   0  0  0  0  0  3  0  0  0  0  0  0
   32.2670   25.1550   16.3140 O   0  0  0  0  0  0  0  0  0  0  0  0
   33.1970   25.0350   16.0580 H   0  0  0  0  0  0  0  0  0  0  0  0
  1  3  1  0  0  0  0
  2  1  2  0  0  0  0
  3 13  1  0  0  0  0
  4  3  1  0  0  0  0
  4  9  1  0  0  0  0
  5  4  2  0  0  0  0
  6  5  1  0  0  0  0
  6  7  2  0  0  0  0
  7  8  1  0  0  0  0
  8  9  2  0  0  0  0
  8 45  1  0  0  0  0
  9 10  1  0  0  0  0
 10 11  1  0  0  0  0
 10 22  1  0  0  0  0
 11 21  1  0  0  0  0
 12 11  2  0  0  0  0
 13 12  1  0  0  0  0
 13 30  1  1  0  0  0
 14 12  1  0  0  0  0
 14 15  2  0  0  0  0
 14 17  1  0  0  0  0
 16 14  2  0  0  0  0
 17 18  1  0  0  0  0
 18 20  1  0  0  0  0
 18 19  1  0  0  0  0
 21 18  1  0  0  0  0
 23 24  1  0  0  0  0
 24 25  2  0  0  0  0
 24 29  1  0  0  0  0
 25 26  1  0  0  0  0
 26 27  2  0  0  0  0
 28 27  1  0  0  0  0
 28  1  1  0  0  0  0
 29 28  2  0  0  0  0
 30 35  1  0  0  0  0
 31 30  2  0  0  0  0
 31 32  1  0  0  0  0
 32 33  2  0  0  0  0
 33 34  1  0  0  0  0
 33 37  1  0  0  0  0
 35 36  1  0  0  0  0
 35 34  2  0  0  0  0
 38 37  1  0  0  0  0
 38 39  1  0  0  0  0
 39 44  1  0  0  0  0
 40 41  1  0  0  0  0
 40 39  2  0  0  0  0
 41 42  2  0  0  0  0
 42 43  1  0  0  0  0
 44 43  2  0  0  0  0
 46 45  1  0  0  0  0
M  END
>  <minimizedAffinity>
-10.1930943

$$$$
