
 OpenBabel08172209593D

 46 51  0  0  1  0  0  0  0  0999 V2000
   31.7130   26.6240   16.9980 C   0  0  0  0  0  0  0  0  0  0  0  0
   32.7050   25.8950   16.9310 O   0  0  0  0  0  0  0  0  0  0  0  0
   30.6900   26.6450   16.0060 N   0  0  0  0  0  0  0  0  0  0  0  0
   29.6540   27.6660   15.8990 C   0  0  0  0  0  0  0  0  0  0  0  0
   29.8510   28.9330   16.4800 C   0  0  0  0  0  3  0  0  0  0  0  0
   28.8360   29.8950   16.5700 C   0  0  0  0  0  3  0  0  0  0  0  0
   27.5830   29.6370   16.0430 C   0  0  0  0  0  3  0  0  0  0  0  0
   27.3920   28.4470   15.3580 C   0  0  0  0  0  0  0  0  0  0  0  0
   28.4170   27.4740   15.2310 C   0  0  0  0  0  0  0  0  0  0  0  0
   28.1420   26.4230   14.3100 N   0  0  0  0  0  0  0  0  0  0  0  0
   29.0720   26.0690   13.3480 C   0  0  0  0  0  0  0  0  0  0  0  0
   30.3180   25.7270   13.7170 C   0  0  0  0  0  0  0  0  0  0  0  0
   30.6900   25.4320   15.1460 C   0  0  2  0  0  3  0  0  0  0  0  0
   31.6010   25.6100   12.5610 S   0  0  0  0  0  0  0  0  0  0  0  0
   32.0430   24.2340   12.4420 O   0  0  0  0  0  0  0  0  0  0  0  0
   32.5710   26.6540   12.8440 O   0  0  0  0  0  0  0  0  0  0  0  0
   30.8740   26.0340   11.0030 C   0  0  0  0  0  2  0  0  0  0  0  0
   29.4370   25.5400   10.8310 C   0  0  0  0  0  0  0  0  0  0  0  0
   29.3330   24.0040   10.8760 C   0  0  0  0  0  1  0  0  0  0  0  0
   28.9260   26.0020    9.4510 C   0  0  0  0  0  1  0  0  0  0  0  0
   28.5650   26.1850   11.9240 C   0  0  0  0  0  2  0  0  0  0  0  0
   27.1630   26.4540   14.0180 H   0  0  0  0  0  0  0  0  0  0  0  0
   33.3380   30.0500   20.0300 C   0  0  0  0  0  1  0  0  0  0  0  0
   32.3430   28.9670   19.7390 C   0  0  0  0  0  0  0  0  0  0  0  0
   31.3630   28.6460   20.6750 C   0  0  0  0  0  3  0  0  0  0  0  0
   30.4570   27.6270   20.3860 C   0  0  0  0  0  3  0  0  0  0  0  0
   30.5500   26.9570   19.1720 C   0  0  0  0  0  3  0  0  0  0  0  0
   31.5470   27.3490   18.2870 C   0  0  0  0  0  0  0  0  0  0  0  0
   32.4480   28.3320   18.5500 N   0  0  0  0  0  0  0  0  0  0  0  0
   29.9010   24.2520   15.7580 C   0  0  0  0  0  0  0  0  0  0  0  0
   29.0430   24.3720   16.8630 C   0  0  0  0  0  3  0  0  0  0  0  0
   28.3030   23.2790   17.3260 C   0  0  0  0  0  3  0  0  0  0  0  0
   28.3850   22.0390   16.6940 C   0  0  0  0  0  0  0  0  0  0  0  0
   29.2520   21.8910   15.6210 C   0  0  0  0  0  3  0  0  0  0  0  0
   29.9950   22.9840   15.1700 C   0  0  0  0  0  0  0  0  0  0  0  0
   30.8180   22.7870   14.1340 F   0  0  0  0  0  0  0  0  0  0  0  0
   27.5760   21.0730   17.2220 O   0  0  0  0  0  0  0  0  0  0  0  0
   26.9590   21.3280   18.4900 C   0  0  0  0  0  2  0  0  0  0  0  0
   25.9520   20.2700   18.8860 C   0  0  0  0  0  0  0  0  0  0  0  0
   26.1770   19.4630   20.0090 C   0  0  0  0  0  3  0  0  0  0  0  0
   25.2400   18.4980   20.3870 C   0  0  0  0  0  3  0  0  0  0  0  0
   24.0670   18.3360   19.6510 C   0  0  0  0  0  3  0  0  0  0  0  0
   23.8270   19.1420   18.5410 C   0  0  0  0  0  3  0  0  0  0  0  0
   24.7610   20.1070   18.1630 C   0  0  0  0  0  3  0  0  0  0  0  0
   26.1930   28.1960   14.7300 O   0  0  0  0  0  0  0  0  0  0  0  0
   25.5940   28.9420   14.9050 H   0  0  0  0  0  0  0  0  0  0  0  0
  1 28  1  0  0  0  0
  2  1  2  0  0  0  0
  3  1  1  0  0  0  0
  4  3  1  0  0  0  0
  4  5  1  0  0  0  0
  5  6  2  0  0  0  0
  7  6  1  0  0  0  0
  8  7  2  0  0  0  0
  9  8  1  0  0  0  0
  9  4  2  0  0  0  0
 10  9  1  0  0  0  0
 11 12  2  0  0  0  0
 11 10  1  0  0  0  0
 12 13  1  0  0  0  0
 13 30  1  1  0  0  0
 13  3  1  0  0  0  0
 14 16  2  0  0  0  0
 14 12  1  0  0  0  0
 15 14  2  0  0  0  0
 17 14  1  0  0  0  0
 18 19  1  0  0  0  0
 18 17  1  0  0  0  0
 18 21  1  0  0  0  0
 20 18  1  0  0  0  0
 21 11  1  0  0  0  0
 22 10  1  0  0  0  0
 24 23  1  0  0  0  0
 24 25  1  0  0  0  0
 26 25  2  0  0  0  0
 27 26  1  0  0  0  0
 28 29  1  0  0  0  0
 28 27  2  0  0  0  0
 29 24  2  0  0  0  0
 30 31  1  0  0  0  0
 31 32  2  0  0  0  0
 33 37  1  0  0  0  0
 33 32  1  0  0  0  0
 34 33  2  0  0  0  0
 35 34  1  0  0  0  0
 35 30  2  0  0  0  0
 36 35  1  0  0  0  0
 37 38  1  0  0  0  0
 38 39  1  0  0  0  0
 39 40  1  0  0  0  0
 40 41  2  0  0  0  0
 42 41  1  0  0  0  0
 43 42  2  0  0  0  0
 44 43  1  0  0  0  0
 44 39  2  0  0  0  0
 45 46  1  0  0  0  0
 45  8  1  0  0  0  0
M  END
>  <minimizedAffinity>
-10.0891562

$$$$
