
 OpenBabel08172209593D

 46 51  0  0  1  0  0  0  0  0999 V2000
   28.2100   53.8640   15.9810 C   0  0  0  0  0  0  0  0  0  0  0  0
   28.3410   52.6480   16.1390 O   0  0  0  0  0  0  0  0  0  0  0  0
   28.9600   54.6140   15.0300 N   0  0  0  0  0  0  0  0  0  0  0  0
   29.0420   56.0690   14.9930 C   0  0  0  0  0  0  0  0  0  0  0  0
   28.7590   56.8200   16.1500 C   0  0  0  0  0  3  0  0  0  0  0  0
   28.6450   58.2170   16.1420 C   0  0  0  0  0  3  0  0  0  0  0  0
   28.8500   58.9260   14.9700 C   0  0  0  0  0  3  0  0  0  0  0  0
   29.2470   58.2260   13.8420 C   0  0  0  0  0  0  0  0  0  0  0  0
   29.3970   56.8160   13.8390 C   0  0  0  0  0  0  0  0  0  0  0  0
   30.0310   56.2770   12.6840 N   0  0  0  0  0  0  0  0  0  0  0  0
   31.0790   55.3820   12.8080 C   0  0  0  0  0  0  0  0  0  0  0  0
   30.9140   54.2550   13.5220 C   0  0  0  0  0  0  0  0  0  0  0  0
   29.5610   53.7660   13.9660 C   0  0  2  0  0  3  0  0  0  0  0  0
   32.2640   53.2800   13.9940 S   0  0  0  0  0  0  0  0  0  0  0  0
   32.2130   51.9960   13.3230 O   0  0  0  0  0  0  0  0  0  0  0  0
   32.3840   53.3310   15.4410 O   0  0  0  0  0  0  0  0  0  0  0  0
   33.6940   54.1130   13.3610 C   0  0  0  0  0  2  0  0  0  0  0  0
   33.4750   54.7800   12.0030 C   0  0  0  0  0  0  0  0  0  0  0  0
   33.1250   53.7650   10.8980 C   0  0  0  0  0  1  0  0  0  0  0  0
   34.7840   55.4850   11.5910 C   0  0  0  0  0  1  0  0  0  0  0  0
   32.3660   55.8380   12.1510 C   0  0  0  0  0  2  0  0  0  0  0  0
   30.1190   56.9940   11.9600 H   0  0  0  0  0  0  0  0  0  0  0  0
   26.5760   55.8910   20.0790 C   0  0  0  0  0  1  0  0  0  0  0  0
   26.2930   55.4210   18.6830 C   0  0  0  0  0  0  0  0  0  0  0  0
   25.0070   55.5190   18.1570 C   0  0  0  0  0  3  0  0  0  0  0  0
   24.7680   55.0640   16.8630 C   0  0  0  0  0  3  0  0  0  0  0  0
   25.8170   54.5260   16.1250 C   0  0  0  0  0  3  0  0  0  0  0  0
   27.0720   54.4790   16.7170 C   0  0  0  0  0  0  0  0  0  0  0  0
   27.3280   54.9060   17.9820 N   0  0  0  0  0  0  0  0  0  0  0  0
   28.5930   53.4800   12.7950 C   0  0  0  0  0  0  0  0  0  0  0  0
   27.3970   54.1820   12.5780 C   0  0  0  0  0  3  0  0  0  0  0  0
   26.5980   53.9220   11.4600 C   0  0  0  0  0  3  0  0  0  0  0  0
   26.9750   52.9660   10.5170 C   0  0  0  0  0  0  0  0  0  0  0  0
   28.1370   52.2380   10.7300 C   0  0  0  0  0  3  0  0  0  0  0  0
   28.9240   52.4960   11.8540 C   0  0  0  0  0  0  0  0  0  0  0  0
   30.0320   51.7650   12.0140 F   0  0  0  0  0  0  0  0  0  0  0  0
   26.1270   52.8460    9.4530 O   0  0  0  0  0  0  0  0  0  0  0  0
   26.5240   52.0020    8.3650 C   0  0  0  0  0  2  0  0  0  0  0  0
   25.3880   51.1710    7.8110 C   0  0  0  0  0  0  0  0  0  0  0  0
   24.9400   50.0350    8.4980 C   0  0  0  0  0  3  0  0  0  0  0  0
   23.8790   49.2770    7.9970 C   0  0  0  0  0  3  0  0  0  0  0  0
   23.2500   49.6520    6.8100 C   0  0  0  0  0  3  0  0  0  0  0  0
   23.6780   50.7870    6.1260 C   0  0  0  0  0  3  0  0  0  0  0  0
   24.7370   51.5460    6.6260 C   0  0  0  0  0  3  0  0  0  0  0  0
   29.5620   58.9040   12.6850 O   0  0  0  0  0  0  0  0  0  0  0  0
   29.4100   59.8520   12.8350 H   0  0  0  0  0  0  0  0  0  0  0  0
  1  2  2  0  0  0  0
  1 28  1  0  0  0  0
  3  1  1  0  0  0  0
  4  3  1  0  0  0  0
  4  5  1  0  0  0  0
  6  5  2  0  0  0  0
  7  6  1  0  0  0  0
  8  7  2  0  0  0  0
  9  8  1  0  0  0  0
  9  4  2  0  0  0  0
 10 11  1  0  0  0  0
 10  9  1  0  0  0  0
 11 12  2  0  0  0  0
 12 13  1  0  0  0  0
 12 14  1  0  0  0  0
 13 30  1  6  0  0  0
 13  3  1  0  0  0  0
 14 16  2  0  0  0  0
 15 14  2  0  0  0  0
 17 14  1  0  0  0  0
 18 21  1  0  0  0  0
 18 17  1  0  0  0  0
 19 18  1  0  0  0  0
 20 18  1  0  0  0  0
 21 11  1  0  0  0  0
 22 10  1  0  0  0  0
 24 23  1  0  0  0  0
 25 24  1  0  0  0  0
 26 25  2  0  0  0  0
 27 28  2  0  0  0  0
 27 26  1  0  0  0  0
 28 29  1  0  0  0  0
 29 24  2  0  0  0  0
 31 30  1  0  0  0  0
 32 31  2  0  0  0  0
 33 34  2  0  0  0  0
 33 32  1  0  0  0  0
 34 35  1  0  0  0  0
 35 36  1  0  0  0  0
 35 30  2  0  0  0  0
 37 33  1  0  0  0  0
 38 37  1  0  0  0  0
 39 38  1  0  0  0  0
 39 40  1  0  0  0  0
 41 40  2  0  0  0  0
 42 41  1  0  0  0  0
 43 44  1  0  0  0  0
 43 42  2  0  0  0  0
 44 39  2  0  0  0  0
 45 46  1  0  0  0  0
 45  8  1  0  0  0  0
M  END
>  <minimizedAffinity>
-10.5960226

$$$$
