
 OpenBabel08172209593D

 46 51  0  0  1  0  0  0  0  0999 V2000
   29.4350   55.6270   16.6970 C   0  0  0  0  0  0  0  0  0  0  0  0
   29.8900   54.5290   16.3680 O   0  0  0  0  0  0  0  0  0  0  0  0
   29.6710   56.8230   15.9590 N   0  0  0  0  0  0  0  0  0  0  0  0
   29.3920   58.1700   16.4440 C   0  0  0  0  0  0  0  0  0  0  0  0
   29.2960   58.4140   17.8280 C   0  0  0  0  0  3  0  0  0  0  0  0
   28.8590   59.6370   18.3560 C   0  0  0  0  0  3  0  0  0  0  0  0
   28.5340   60.6840   17.5110 C   0  0  0  0  0  3  0  0  0  0  0  0
   28.7320   60.5150   16.1490 C   0  0  0  0  0  0  0  0  0  0  0  0
   29.2020   59.2950   15.6000 C   0  0  0  0  0  0  0  0  0  0  0  0
   29.5740   59.3540   14.2260 N   0  0  0  0  0  0  0  0  0  0  0  0
   30.7920   58.8510   13.8030 C   0  0  0  0  0  0  0  0  0  0  0  0
   31.1170   57.5740   14.0710 C   0  0  0  0  0  0  0  0  0  0  0  0
   30.1120   56.5660   14.5630 C   0  0  2  0  0  3  0  0  0  0  0  0
   32.7360   56.9950   13.8760 S   0  0  0  0  0  0  0  0  0  0  0  0
   32.7930   56.0200   12.8040 O   0  0  0  0  0  0  0  0  0  0  0  0
   33.2630   56.6550   15.1860 O   0  0  0  0  0  0  0  0  0  0  0  0
   33.6750   58.3920   13.3240 C   0  0  0  0  0  2  0  0  0  0  0  0
   32.9130   59.3200   12.3790 C   0  0  0  0  0  0  0  0  0  0  0  0
   32.5010   58.6180   11.0700 C   0  0  0  0  0  1  0  0  0  0  0  0
   33.8360   60.4980   12.0040 C   0  0  0  0  0  1  0  0  0  0  0  0
   31.6810   59.8700   13.1210 C   0  0  0  0  0  2  0  0  0  0  0  0
   29.2720   60.2390   13.8140 H   0  0  0  0  0  0  0  0  0  0  0  0
   28.6470   55.1420   21.4630 C   0  0  0  0  0  1  0  0  0  0  0  0
   28.0850   55.3380   20.0870 C   0  0  0  0  0  0  0  0  0  0  0  0
   26.7070   55.4270   19.8990 C   0  0  0  0  0  3  0  0  0  0  0  0
   26.2090   55.5970   18.6090 C   0  0  0  0  0  3  0  0  0  0  0  0
   27.0960   55.6770   17.5410 C   0  0  0  0  0  3  0  0  0  0  0  0
   28.4550   55.5960   17.8160 C   0  0  0  0  0  0  0  0  0  0  0  0
   28.9650   55.4200   19.0640 N   0  0  0  0  0  0  0  0  0  0  0  0
   28.9360   56.3400   13.5840 C   0  0  0  0  0  0  0  0  0  0  0  0
   27.6270   56.7920   13.8140 C   0  0  0  0  0  3  0  0  0  0  0  0
   26.6220   56.6160   12.8570 C   0  0  0  0  0  3  0  0  0  0  0  0
   26.8950   55.9980   11.6370 C   0  0  0  0  0  0  0  0  0  0  0  0
   28.1750   55.5140   11.4040 C   0  0  0  0  0  3  0  0  0  0  0  0
   29.1700   55.6850   12.3680 C   0  0  0  0  0  0  0  0  0  0  0  0
   30.3850   55.1980   12.0950 F   0  0  0  0  0  0  0  0  0  0  0  0
   25.8340   55.9320   10.7790 O   0  0  0  0  0  0  0  0  0  0  0  0
   25.3630   54.6370   10.3880 C   0  0  0  0  0  2  0  0  0  0  0  0
   25.0760   53.7280   11.5640 C   0  0  0  0  0  0  0  0  0  0  0  0
   25.7890   52.5320   11.7250 C   0  0  0  0  0  3  0  0  0  0  0  0
   25.5380   51.7010   12.8190 C   0  0  0  0  0  3  0  0  0  0  0  0
   24.5800   52.0610   13.7660 C   0  0  0  0  0  3  0  0  0  0  0  0
   23.8750   53.2540   13.6230 C   0  0  0  0  0  3  0  0  0  0  0  0
   24.1250   54.0860   12.5310 C   0  0  0  0  0  3  0  0  0  0  0  0
   28.5210   61.5650   15.2850 O   0  0  0  0  0  0  0  0  0  0  0  0
   28.2010   62.3250   15.8000 H   0  0  0  0  0  0  0  0  0  0  0  0
  1 28  1  0  0  0  0
  2  1  2  0  0  0  0
  3  4  1  0  0  0  0
  3  1  1  0  0  0  0
  4  5  1  0  0  0  0
  5  6  2  0  0  0  0
  7  6  1  0  0  0  0
  8  7  2  0  0  0  0
  9  8  1  0  0  0  0
  9  4  2  0  0  0  0
 10  9  1  0  0  0  0
 11 12  2  0  0  0  0
 11 10  1  0  0  0  0
 12 13  1  0  0  0  0
 13 30  1  6  0  0  0
 13  3  1  0  0  0  0
 14 12  1  0  0  0  0
 14 16  2  0  0  0  0
 15 14  2  0  0  0  0
 17 14  1  0  0  0  0
 18 21  1  0  0  0  0
 18 17  1  0  0  0  0
 19 18  1  0  0  0  0
 20 18  1  0  0  0  0
 21 11  1  0  0  0  0
 22 10  1  0  0  0  0
 24 23  1  0  0  0  0
 25 24  1  0  0  0  0
 26 25  2  0  0  0  0
 27 28  2  0  0  0  0
 27 26  1  0  0  0  0
 28 29  1  0  0  0  0
 29 24  2  0  0  0  0
 30 31  1  0  0  0  0
 32 31  2  0  0  0  0
 33 32  1  0  0  0  0
 34 33  2  0  0  0  0
 34 35  1  0  0  0  0
 35 30  2  0  0  0  0
 36 35  1  0  0  0  0
 37 33  1  0  0  0  0
 38 37  1  0  0  0  0
 38 39  1  0  0  0  0
 39 40  2  0  0  0  0
 39 44  1  0  0  0  0
 40 41  1  0  0  0  0
 41 42  2  0  0  0  0
 43 42  1  0  0  0  0
 44 43  2  0  0  0  0
 45 46  1  0  0  0  0
 45  8  1  0  0  0  0
M  END
>  <minimizedAffinity>
-9.99382496

$$$$
