
 OpenBabel09122222393D

 32 34  0  0  0  0  0  0  0  0999 V2000
   11.0760    7.1350    0.1800 C   0  0  0  0  0  0  0  0  0  0  0  0
    9.8350    7.0170   -0.4560 C   0  0  0  0  0  3  0  0  0  0  0  0
    9.6370    7.5740   -1.7210 C   0  0  0  0  0  3  0  0  0  0  0  0
   10.6760    8.2610   -2.3490 C   0  0  0  0  0  0  0  0  0  0  0  0
   11.9300    8.3530   -1.7380 C   0  0  0  0  0  3  0  0  0  0  0  0
   12.1250    7.7930   -0.4740 C   0  0  0  0  0  3  0  0  0  0  0  0
   10.5290    6.7780    2.6070 C   0  0  0  0  0  0  0  0  0  0  0  0
   11.2690    6.5360    1.5040 C   0  0  0  0  0  2  0  0  0  0  0  0
    9.4100    7.6000    2.5620 N   0  0  0  0  0  4  0  0  0  0  0  0
    9.2920    8.9720    2.5840 C   0  0  0  0  0  0  0  0  0  0  0  0
    8.1900    9.4820    2.8090 O   0  0  0  0  0  0  0  0  0  0  0  0
    8.5130    7.1380    2.6180 H   0  0  0  0  0  0  0  0  0  0  0  0
   10.4130    9.8680    2.2270 C   0  0  0  0  0  0  0  0  0  0  0  0
   10.3510   10.5720    1.0190 C   0  0  0  0  0  3  0  0  0  0  0  0
   11.4260   11.3650    0.6150 C   0  0  0  0  0  3  0  0  0  0  0  0
   12.5710   11.4430    1.4090 C   0  0  0  0  0  3  0  0  0  0  0  0
   12.6460   10.7220    2.6010 C   0  0  0  0  0  3  0  0  0  0  0  0
   11.5750    9.9240    3.0050 C   0  0  0  0  0  3  0  0  0  0  0  0
   10.0540    5.4050    4.5080 O   0  0  0  0  0  1  0  0  0  0  0  0
   10.9900    5.9500    3.8520 C   0  0  0  0  0  0  0  0  0  0  0  0
   12.2360    5.9660    4.0660 O   0  0  0  0  0  0  0  0  0  0  0  0
   10.4230    8.7690   -3.6030 O   0  0  0  0  0  0  0  0  0  0  0  0
    9.7430    9.9670   -3.6720 C   0  0  0  0  0  0  0  0  0  0  0  0
   10.1500   11.0780   -2.9220 C   0  0  0  0  0  3  0  0  0  0  0  0
    9.4220   12.2660   -2.9820 C   0  0  0  0  0  3  0  0  0  0  0  0
    8.2800   12.3410   -3.7750 C   0  0  0  0  0  3  0  0  0  0  0  0
    7.8600   11.2280   -4.5050 C   0  0  0  0  0  3  0  0  0  0  0  0
    8.5840   10.0220   -4.4550 C   0  0  0  0  0  0  0  0  0  0  0  0
    8.1310    8.8210   -5.2380 C   0  0  0  0  0  0  0  0  0  0  0  0
    7.1850    9.1210   -6.1760 F   0  0  0  0  0  0  0  0  0  0  0  0
    9.1400    8.2190   -5.9280 F   0  0  0  0  0  0  0  0  0  0  0  0
    7.5670    7.8530   -4.4610 F   0  0  0  0  0  0  0  0  0  0  0  0
  1  8  1  0  0  0  0
  2  1  1  0  0  0  0
  3  2  2  0  0  0  0
  4  5  2  0  0  0  0
  4  3  1  0  0  0  0
  5  6  1  0  0  0  0
  6  1  2  0  0  0  0
  7 20  1  0  0  0  0
  8  7  1  0  0  0  0
  9 10  1  0  0  0  0
  9  7  2  0  0  0  0
  9 12  1  0  0  0  0
 10 11  2  0  0  0  0
 13 10  1  0  0  0  0
 13 18  1  0  0  0  0
 14 13  2  0  0  0  0
 15 14  1  0  0  0  0
 15 16  2  0  0  0  0
 16 17  1  0  0  0  0
 17 18  2  0  0  0  0
 20 21  2  0  0  0  0
 20 19  1  0  0  0  0
 22  4  1  0  0  0  0
 23 22  1  0  0  0  0
 23 24  1  0  0  0  0
 25 24  2  0  0  0  0
 26 25  1  0  0  0  0
 27 28  1  0  0  0  0
 27 26  2  0  0  0  0
 28 23  2  0  0  0  0
 29 32  1  0  0  0  0
 29 28  1  0  0  0  0
 30 29  1  0  0  0  0
 31 29  1  0  0  0  0
M  END
>  <minimizedAffinity>
-6.66431427

$$$$
