
 OpenBabel09122222393D

 32 34  0  0  0  0  0  0  0  0999 V2000
    9.3830    9.1190    0.4280 C   0  0  0  0  0  0  0  0  0  0  0  0
    9.2350    7.9170   -0.2730 C   0  0  0  0  0  3  0  0  0  0  0  0
   10.1450    6.8750   -0.0830 C   0  0  0  0  0  3  0  0  0  0  0  0
   11.2120    7.0370    0.8000 C   0  0  0  0  0  0  0  0  0  0  0  0
   11.3480    8.2190    1.5320 C   0  0  0  0  0  3  0  0  0  0  0  0
   10.4350    9.2590    1.3410 C   0  0  0  0  0  3  0  0  0  0  0  0
    8.6500   11.3830   -0.3800 C   0  0  0  0  0  0  0  0  0  0  0  0
    8.4130   10.1990    0.2220 C   0  0  0  0  0  2  0  0  0  0  0  0
    9.8800   11.6670   -0.9600 N   0  0  0  0  0  4  0  0  0  0  0  0
   10.4320   11.2680   -2.1570 C   0  0  0  0  0  0  0  0  0  0  0  0
   11.6430   11.4180   -2.3460 O   0  0  0  0  0  0  0  0  0  0  0  0
   10.5380   12.1740   -0.3850 H   0  0  0  0  0  0  0  0  0  0  0  0
    9.6090   10.7730   -3.2820 C   0  0  0  0  0  0  0  0  0  0  0  0
    8.7560   11.6700   -3.9340 C   0  0  0  0  0  3  0  0  0  0  0  0
    7.9090   11.2190   -4.9470 C   0  0  0  0  0  3  0  0  0  0  0  0
    7.9000    9.8680   -5.2980 C   0  0  0  0  0  3  0  0  0  0  0  0
    8.7300    8.9670   -4.6310 C   0  0  0  0  0  3  0  0  0  0  0  0
    9.5750    9.4140   -3.6140 C   0  0  0  0  0  3  0  0  0  0  0  0
    6.9070   12.4570   -1.6180 O   0  0  0  0  0  0  0  0  0  0  0  0
    7.3850   12.3000   -0.4560 C   0  0  0  0  0  0  0  0  0  0  0  0
    7.0250   12.8000    0.6490 O   0  0  0  0  0  1  0  0  0  0  0  0
   12.0620    5.9650    0.9590 O   0  0  0  0  0  0  0  0  0  0  0  0
   11.4920    4.7090    0.9850 C   0  0  0  0  0  0  0  0  0  0  0  0
   11.2580    3.9910   -0.1950 C   0  0  0  0  0  3  0  0  0  0  0  0
   10.6470    2.7390   -0.1410 C   0  0  0  0  0  3  0  0  0  0  0  0
   10.2530    2.2100    1.0850 C   0  0  0  0  0  3  0  0  0  0  0  0
   10.4650    2.9340    2.2600 C   0  0  0  0  0  3  0  0  0  0  0  0
   11.0810    4.1980    2.2230 C   0  0  0  0  0  0  0  0  0  0  0  0
   11.3060    4.9820    3.4860 C   0  0  0  0  0  0  0  0  0  0  0  0
   10.3930    5.9840    3.6620 F   0  0  0  0  0  0  0  0  0  0  0  0
   11.2210    4.2200    4.6120 F   0  0  0  0  0  0  0  0  0  0  0  0
   12.5210    5.5980    3.5290 F   0  0  0  0  0  0  0  0  0  0  0  0
  1  6  1  0  0  0  0
  2  3  1  0  0  0  0
  2  1  2  0  0  0  0
  3  4  2  0  0  0  0
  4 22  1  0  0  0  0
  4  5  1  0  0  0  0
  6  5  2  0  0  0  0
  7  8  1  0  0  0  0
  8  1  1  0  0  0  0
  9 12  1  0  0  0  0
  9  7  2  3  0  0  0
 10  9  1  0  0  0  0
 11 10  2  0  0  0  0
 13 10  1  0  0  0  0
 14 13  2  0  0  0  0
 15 14  1  0  0  0  0
 16 15  2  0  0  0  0
 16 17  1  0  0  0  0
 17 18  2  0  0  0  0
 18 13  1  0  0  0  0
 19 20  2  0  0  0  0
 20  7  1  0  0  0  0
 20 21  1  0  0  0  0
 22 23  1  0  0  0  0
 23 28  1  0  0  0  0
 24 25  1  0  0  0  0
 24 23  2  0  0  0  0
 25 26  2  0  0  0  0
 26 27  1  0  0  0  0
 28 27  2  0  0  0  0
 28 29  1  0  0  0  0
 29 32  1  0  0  0  0
 29 30  1  0  0  0  0
 29 31  1  0  0  0  0
M  END
>  <minimizedAffinity>
-6.31002378

$$$$
