
 OpenBabel09122222393D

 32 34  0  0  0  0  0  0  0  0999 V2000
   10.4330    7.0190   -0.3660 C   0  0  0  0  0  0  0  0  0  0  0  0
    9.4070    6.0750   -0.4810 C   0  0  0  0  0  3  0  0  0  0  0  0
    9.5930    4.7730   -0.0110 C   0  0  0  0  0  3  0  0  0  0  0  0
   10.8110    4.4100    0.5660 C   0  0  0  0  0  0  0  0  0  0  0  0
   11.8280    5.3550    0.7190 C   0  0  0  0  0  3  0  0  0  0  0  0
   11.6380    6.6560    0.2490 C   0  0  0  0  0  3  0  0  0  0  0  0
    9.3500    9.2870   -0.3550 C   0  0  0  0  0  0  0  0  0  0  0  0
   10.2170    8.3830   -0.8570 C   0  0  0  0  0  2  0  0  0  0  0  0
    8.6000    9.0160    0.7830 N   0  0  0  0  0  4  0  0  0  0  0  0
    8.8190    9.3250    2.1070 C   0  0  0  0  0  0  0  0  0  0  0  0
    8.1610    8.7500    2.9800 O   0  0  0  0  0  0  0  0  0  0  0  0
    7.8030    8.4090    0.6580 H   0  0  0  0  0  0  0  0  0  0  0  0
    9.7310   10.4120    2.5260 C   0  0  0  0  0  0  0  0  0  0  0  0
   10.9740   10.0710    3.0720 C   0  0  0  0  0  3  0  0  0  0  0  0
   11.8260   11.0680    3.5480 C   0  0  0  0  0  3  0  0  0  0  0  0
   11.4300   12.4050    3.4970 C   0  0  0  0  0  3  0  0  0  0  0  0
   10.1810   12.7460    2.9770 C   0  0  0  0  0  3  0  0  0  0  0  0
    9.3240   11.7500    2.5040 C   0  0  0  0  0  3  0  0  0  0  0  0
   10.4840   10.9210   -1.6850 O   0  0  0  0  0  0  0  0  0  0  0  0
    9.3890   10.6610   -1.1020 C   0  0  0  0  0  0  0  0  0  0  0  0
    8.3370   11.3530   -0.9950 O   0  0  0  0  0  1  0  0  0  0  0  0
   10.9230    3.1170    1.0280 O   0  0  0  0  0  0  0  0  0  0  0  0
   10.9660    2.1130    0.0850 C   0  0  0  0  0  0  0  0  0  0  0  0
   11.7250    2.2450   -1.0850 C   0  0  0  0  0  3  0  0  0  0  0  0
   11.7200    1.2290   -2.0400 C   0  0  0  0  0  3  0  0  0  0  0  0
   10.9460    0.0890   -1.8380 C   0  0  0  0  0  3  0  0  0  0  0  0
   10.1710   -0.0340   -0.6840 C   0  0  0  0  0  3  0  0  0  0  0  0
   10.1650    0.9820    0.2900 C   0  0  0  0  0  0  0  0  0  0  0  0
    9.3280    0.8530    1.5320 C   0  0  0  0  0  0  0  0  0  0  0  0
   10.0730    0.8430    2.6780 F   0  0  0  0  0  0  0  0  0  0  0  0
    8.4420    1.8750    1.6910 F   0  0  0  0  0  0  0  0  0  0  0  0
    8.5990   -0.2980    1.5730 F   0  0  0  0  0  0  0  0  0  0  0  0
  1  6  1  0  0  0  0
  2  1  2  0  0  0  0
  2  3  1  0  0  0  0
  3  4  2  0  0  0  0
  4  5  1  0  0  0  0
  4 22  1  0  0  0  0
  6  5  2  0  0  0  0
  7  9  2  0  0  0  0
  8  1  1  0  0  0  0
  8  7  1  0  0  0  0
  9 10  1  0  0  0  0
 10 13  1  0  0  0  0
 10 11  2  0  0  0  0
 12  9  1  0  0  0  0
 13 14  1  0  0  0  0
 14 15  2  0  0  0  0
 16 15  1  0  0  0  0
 17 16  2  0  0  0  0
 18 13  2  0  0  0  0
 18 17  1  0  0  0  0
 19 20  2  0  0  0  0
 20 21  1  0  0  0  0
 20  7  1  0  0  0  0
 23 28  1  0  0  0  0
 23 22  1  0  0  0  0
 24 23  2  0  0  0  0
 25 26  2  0  0  0  0
 25 24  1  0  0  0  0
 26 27  1  0  0  0  0
 27 28  2  0  0  0  0
 28 29  1  0  0  0  0
 29 32  1  0  0  0  0
 29 31  1  0  0  0  0
 29 30  1  0  0  0  0
M  END
>  <minimizedAffinity>
-7.2919507

$$$$
