
 OpenBabel09122222393D

 32 34  0  0  0  0  0  0  0  0999 V2000
   10.7410    9.4340    2.1910 C   0  0  0  0  0  0  0  0  0  0  0  0
   10.0080   10.4380    2.8330 C   0  0  0  0  0  3  0  0  0  0  0  0
    9.7810   11.6600    2.1970 C   0  0  0  0  0  3  0  0  0  0  0  0
   10.2970   11.8840    0.9200 C   0  0  0  0  0  0  0  0  0  0  0  0
   10.9980   10.8750    0.2550 C   0  0  0  0  0  3  0  0  0  0  0  0
   11.2220    9.6540    0.8950 C   0  0  0  0  0  3  0  0  0  0  0  0
   10.3220    6.9930    2.6200 C   0  0  0  0  0  0  0  0  0  0  0  0
   10.9620    8.1540    2.8720 C   0  0  0  0  0  2  0  0  0  0  0  0
    9.4030    6.8830    1.5850 N   0  0  0  0  0  4  0  0  0  0  0  0
    9.4670    6.2150    0.3820 C   0  0  0  0  0  0  0  0  0  0  0  0
    8.6460    6.4760   -0.5010 O   0  0  0  0  0  0  0  0  0  0  0  0
    8.5750    7.4580    1.6590 H   0  0  0  0  0  0  0  0  0  0  0  0
   10.4130    5.1020    0.1450 C   0  0  0  0  0  0  0  0  0  0  0  0
    9.9640    3.7900    0.3320 C   0  0  0  0  0  3  0  0  0  0  0  0
   10.8500    2.7210    0.1920 C   0  0  0  0  0  3  0  0  0  0  0  0
   12.1900    2.9620   -0.1160 C   0  0  0  0  0  3  0  0  0  0  0  0
   12.6450    4.2710   -0.2770 C   0  0  0  0  0  3  0  0  0  0  0  0
   11.7630    5.3430   -0.1330 C   0  0  0  0  0  3  0  0  0  0  0  0
    9.9960    5.4260    4.3990 O   0  0  0  0  0  1  0  0  0  0  0  0
   10.8190    5.8090    3.5150 C   0  0  0  0  0  0  0  0  0  0  0  0
   11.9940    5.4140    3.2660 O   0  0  0  0  0  0  0  0  0  0  0  0
   10.0200   13.1010    0.3380 O   0  0  0  0  0  0  0  0  0  0  0  0
    9.7890   13.1110   -1.0210 C   0  0  0  0  0  0  0  0  0  0  0  0
   10.8120   13.4060   -1.9320 C   0  0  0  0  0  3  0  0  0  0  0  0
   10.5410   13.4450   -3.2990 C   0  0  0  0  0  3  0  0  0  0  0  0
    9.2480   13.2070   -3.7580 C   0  0  0  0  0  3  0  0  0  0  0  0
    8.2220   12.9360   -2.8510 C   0  0  0  0  0  3  0  0  0  0  0  0
    8.4800   12.8930   -1.4680 C   0  0  0  0  0  0  0  0  0  0  0  0
    7.3750   12.6040   -0.4890 C   0  0  0  0  0  0  0  0  0  0  0  0
    6.1300   12.7480   -1.0330 F   0  0  0  0  0  0  0  0  0  0  0  0
    7.4090   11.3330   -0.0020 F   0  0  0  0  0  0  0  0  0  0  0  0
    7.3870   13.4310    0.5950 F   0  0  0  0  0  0  0  0  0  0  0  0
  1  2  1  0  0  0  0
  1  8  1  0  0  0  0
  3  2  2  0  0  0  0
  4  3  1  0  0  0  0
  5  6  1  0  0  0  0
  5  4  2  0  0  0  0
  6  1  2  0  0  0  0
  7  8  1  0  0  0  0
  7 20  1  0  0  0  0
  9 12  1  0  0  0  0
  9  7  2  0  0  0  0
 10  9  1  0  0  0  0
 11 10  2  0  0  0  0
 13 14  1  0  0  0  0
 13 10  1  0  0  0  0
 15 14  2  0  0  0  0
 16 15  1  0  0  0  0
 17 18  1  0  0  0  0
 17 16  2  0  0  0  0
 18 13  2  0  0  0  0
 20 19  1  0  0  0  0
 21 20  2  0  0  0  0
 22  4  1  0  0  0  0
 23 22  1  0  0  0  0
 24 23  2  0  0  0  0
 25 24  1  0  0  0  0
 26 25  2  0  0  0  0
 26 27  1  0  0  0  0
 27 28  2  0  0  0  0
 28 23  1  0  0  0  0
 28 29  1  0  0  0  0
 29 31  1  0  0  0  0
 29 32  1  0  0  0  0
 30 29  1  0  0  0  0
M  END
>  <minimizedAffinity>
-6.34727764

$$$$
