
 OpenBabel09122219323D

 32 34  0  0  0  0  0  0  0  0999 V2000
   10.4330    7.0190   -0.3660 C   0  0  0  0  0  0  0  0  0  0  0  0
    9.4070    6.0750   -0.4810 C   0  0  0  0  0  3  0  0  0  0  0  0
    9.5930    4.7730   -0.0110 C   0  0  0  0  0  3  0  0  0  0  0  0
   10.8110    4.4100    0.5660 C   0  0  0  0  0  0  0  0  0  0  0  0
   11.8280    5.3550    0.7190 C   0  0  0  0  0  3  0  0  0  0  0  0
   11.6380    6.6560    0.2490 C   0  0  0  0  0  3  0  0  0  0  0  0
    9.3500    9.2870   -0.3550 C   0  0  0  0  0  0  0  0  0  0  0  0
   10.2170    8.3830   -0.8570 C   0  0  0  0  0  2  0  0  0  0  0  0
    8.6000    9.0160    0.7830 N   0  0  0  0  0  4  0  0  0  0  0  0
    8.8190    9.3250    2.1070 C   0  0  0  0  0  0  0  0  0  0  0  0
    8.1610    8.7500    2.9800 O   0  0  0  0  0  0  0  0  0  0  0  0
    7.8030    8.4090    0.6580 H   0  0  0  0  0  0  0  0  0  0  0  0
    9.7310   10.4120    2.5260 C   0  0  0  0  0  0  0  0  0  0  0  0
   10.9740   10.0710    3.0720 C   0  0  0  0  0  3  0  0  0  0  0  0
   11.8260   11.0680    3.5480 C   0  0  0  0  0  3  0  0  0  0  0  0
   11.4300   12.4050    3.4970 C   0  0  0  0  0  3  0  0  0  0  0  0
   10.1810   12.7460    2.9770 C   0  0  0  0  0  3  0  0  0  0  0  0
    9.3240   11.7500    2.5040 C   0  0  0  0  0  3  0  0  0  0  0  0
   10.4840   10.9210   -1.6850 O   0  0  0  0  0  0  0  0  0  0  0  0
    9.3890   10.6610   -1.1020 C   0  0  0  0  0  0  0  0  0  0  0  0
    8.3370   11.3530   -0.9950 O   0  0  0  0  0  1  0  0  0  0  0  0
   10.9230    3.1170    1.0280 O   0  0  0  0  0  0  0  0  0  0  0  0
   10.9660    2.1130    0.0850 C   0  0  0  0  0  0  0  0  0  0  0  0
   11.7250    2.2450   -1.0850 C   0  0  0  0  0  3  0  0  0  0  0  0
   11.7200    1.2290   -2.0400 C   0  0  0  0  0  3  0  0  0  0  0  0
   10.9460    0.0890   -1.8380 C   0  0  0  0  0  3  0  0  0  0  0  0
   10.1710   -0.0340   -0.6840 C   0  0  0  0  0  3  0  0  0  0  0  0
   10.1650    0.9820    0.2900 C   0  0  0  0  0  0  0  0  0  0  0  0
    9.3280    0.8530    1.5320 C   0  0  0  0  0  0  0  0  0  0  0  0
   10.0730    0.8430    2.6780 F   0  0  0  0  0  0  0  0  0  0  0  0
    8.4420    1.8750    1.6910 F   0  0  0  0  0  0  0  0  0  0  0  0
    8.5990   -0.2980    1.5730 F   0  0  0  0  0  0  0  0  0  0  0  0
  1  6  1  0  0  0  0
  2  1  2  0  0  0  0
  2  3  1  0  0  0  0
  3  4  2  0  0  0  0
  4  5  1  0  0  0  0
  4 22  1  0  0  0  0
  6  5  2  0  0  0  0
  7  9  2  0  0  0  0
  8  1  1  0  0  0  0
  8  7  1  0  0  0  0
  9 10  1  0  0  0  0
 10 13  1  0  0  0  0
 10 11  2  0  0  0  0
 12  9  1  0  0  0  0
 13 14  1  0  0  0  0
 14 15  2  0  0  0  0
 16 15  1  0  0  0  0
 17 16  2  0  0  0  0
 18 13  2  0  0  0  0
 18 17  1  0  0  0  0
 19 20  2  0  0  0  0
 20 21  1  0  0  0  0
 20  7  1  0  0  0  0
 23 28  1  0  0  0  0
 23 22  1  0  0  0  0
 24 23  2  0  0  0  0
 25 26  2  0  0  0  0
 25 24  1  0  0  0  0
 26 27  1  0  0  0  0
 27 28  2  0  0  0  0
 28 29  1  0  0  0  0
 29 32  1  0  0  0  0
 29 31  1  0  0  0  0
 29 30  1  0  0  0  0
M  END
>  <minimizedAffinity>
-7.2919507

$$$$

 OpenBabel09122219323D

 32 34  0  0  0  0  0  0  0  0999 V2000
    9.1300    9.0140    0.4630 C   0  0  0  0  0  0  0  0  0  0  0  0
    8.9160    7.8470   -0.2780 C   0  0  0  0  0  3  0  0  0  0  0  0
    9.7310    6.7300   -0.0830 C   0  0  0  0  0  3  0  0  0  0  0  0
   10.7700    6.7830    0.8460 C   0  0  0  0  0  0  0  0  0  0  0  0
   10.9690    7.9310    1.6170 C   0  0  0  0  0  3  0  0  0  0  0  0
   10.1510    9.0450    1.4200 C   0  0  0  0  0  3  0  0  0  0  0  0
    8.5870   11.3150   -0.3920 C   0  0  0  0  0  0  0  0  0  0  0  0
    8.2590   10.1740    0.2500 C   0  0  0  0  0  2  0  0  0  0  0  0
    9.8210   11.4680   -1.0110 N   0  0  0  0  0  4  0  0  0  0  0  0
   10.2940   11.0030   -2.2180 C   0  0  0  0  0  0  0  0  0  0  0  0
   11.5070   11.0290   -2.4440 O   0  0  0  0  0  0  0  0  0  0  0  0
   10.5440   11.9110   -0.4610 H   0  0  0  0  0  0  0  0  0  0  0  0
    9.3910   10.5830   -3.3120 C   0  0  0  0  0  0  0  0  0  0  0  0
    9.3920    9.2390   -3.7030 C   0  0  0  0  0  3  0  0  0  0  0  0
    8.6110    8.8240   -4.7820 C   0  0  0  0  0  3  0  0  0  0  0  0
    7.8420    9.7530   -5.4830 C   0  0  0  0  0  3  0  0  0  0  0  0
    7.8600   11.0980   -5.1120 C   0  0  0  0  0  3  0  0  0  0  0  0
    8.6440   11.5180   -4.0370 C   0  0  0  0  0  3  0  0  0  0  0  0
    7.0480   12.8180    0.6560 O   0  0  0  0  0  1  0  0  0  0  0  0
    7.4100   12.3430   -0.4620 C   0  0  0  0  0  0  0  0  0  0  0  0
    6.9440   12.5380   -1.6210 O   0  0  0  0  0  0  0  0  0  0  0  0
   11.5250    5.6420    1.0070 O   0  0  0  0  0  0  0  0  0  0  0  0
   11.1320    4.7610    1.9930 C   0  0  0  0  0  0  0  0  0  0  0  0
   11.1590    5.1230    3.3450 C   0  0  0  0  0  3  0  0  0  0  0  0
   10.7910    4.2010    4.3240 C   0  0  0  0  0  3  0  0  0  0  0  0
   10.4140    2.9120    3.9560 C   0  0  0  0  0  3  0  0  0  0  0  0
   10.4080    2.5410    2.6100 C   0  0  0  0  0  3  0  0  0  0  0  0
   10.7760    3.4610    1.6110 C   0  0  0  0  0  0  0  0  0  0  0  0
   10.7740    3.0630    0.1610 C   0  0  0  0  0  0  0  0  0  0  0  0
   10.6530    1.7140   -0.0210 F   0  0  0  0  0  0  0  0  0  0  0  0
    9.7480    3.6130   -0.5450 F   0  0  0  0  0  0  0  0  0  0  0  0
   11.9190    3.4080   -0.4940 F   0  0  0  0  0  0  0  0  0  0  0  0
  1  6  1  0  0  0  0
  2  3  1  0  0  0  0
  2  1  2  0  0  0  0
  3  4  2  0  0  0  0
  4 22  1  0  0  0  0
  4  5  1  0  0  0  0
  6  5  2  0  0  0  0
  7  8  1  0  0  0  0
  8  1  1  0  0  0  0
  9 12  1  0  0  0  0
  9  7  2  3  0  0  0
 10  9  1  0  0  0  0
 11 10  2  0  0  0  0
 13 10  1  0  0  0  0
 14 13  1  0  0  0  0
 15 14  2  0  0  0  0
 16 17  2  0  0  0  0
 16 15  1  0  0  0  0
 17 18  1  0  0  0  0
 18 13  2  0  0  0  0
 20  7  1  0  0  0  0
 20 19  1  0  0  0  0
 21 20  2  0  0  0  0
 22 23  1  0  0  0  0
 23 24  1  0  0  0  0
 24 25  2  0  0  0  0
 26 25  1  0  0  0  0
 27 26  2  0  0  0  0
 28 23  2  0  0  0  0
 28 27  1  0  0  0  0
 29 28  1  0  0  0  0
 30 29  1  0  0  0  0
 31 29  1  0  0  0  0
 32 29  1  0  0  0  0
M  END
>  <minimizedAffinity>
-6.82523012

$$$$

 OpenBabel09122219323D

 32 34  0  0  0  0  0  0  0  0999 V2000
    9.6920    7.0370    0.6720 C   0  0  0  0  0  0  0  0  0  0  0  0
   10.6580    6.7680    1.6480 C   0  0  0  0  0  3  0  0  0  0  0  0
   11.1390    5.4690    1.8250 C   0  0  0  0  0  3  0  0  0  0  0  0
   10.6460    4.4330    1.0310 C   0  0  0  0  0  0  0  0  0  0  0  0
    9.7090    4.6960    0.0290 C   0  0  0  0  0  3  0  0  0  0  0  0
    9.2310    5.9970   -0.1450 C   0  0  0  0  0  3  0  0  0  0  0  0
    9.7210    9.3400   -0.3330 C   0  0  0  0  0  0  0  0  0  0  0  0
    9.2050    8.4080    0.4960 C   0  0  0  0  0  2  0  0  0  0  0  0
   10.7670    9.0410   -1.1970 N   0  0  0  0  0  4  0  0  0  0  0  0
   10.7910    8.8570   -2.5610 C   0  0  0  0  0  0  0  0  0  0  0  0
   11.7780    8.3320   -3.0840 O   0  0  0  0  0  0  0  0  0  0  0  0
   11.6540    8.8240   -0.7650 H   0  0  0  0  0  0  0  0  0  0  0  0
    9.7270    9.3750   -3.4490 C   0  0  0  0  0  0  0  0  0  0  0  0
    8.9720    8.4630   -4.1940 C   0  0  0  0  0  3  0  0  0  0  0  0
    8.0130    8.9220   -5.0980 C   0  0  0  0  0  3  0  0  0  0  0  0
    7.8200   10.2930   -5.2730 C   0  0  0  0  0  3  0  0  0  0  0  0
    8.5900   11.2050   -4.5500 C   0  0  0  0  0  3  0  0  0  0  0  0
    9.5530   10.7500   -3.6490 C   0  0  0  0  0  3  0  0  0  0  0  0
    9.6520   11.7250   -0.5060 O   0  0  0  0  0  0  0  0  0  0  0  0
    8.9430   10.6970   -0.2940 C   0  0  0  0  0  0  0  0  0  0  0  0
    7.7140   10.5960   -0.0170 O   0  0  0  0  0  1  0  0  0  0  0  0
   11.1760    3.1790    1.2400 O   0  0  0  0  0  0  0  0  0  0  0  0
   11.1790    2.3110    0.1680 C   0  0  0  0  0  0  0  0  0  0  0  0
   11.9670    2.5560   -0.9640 C   0  0  0  0  0  3  0  0  0  0  0  0
   11.9230    1.6810   -2.0490 C   0  0  0  0  0  3  0  0  0  0  0  0
   11.0820    0.5720   -2.0130 C   0  0  0  0  0  3  0  0  0  0  0  0
   10.2780    0.3390   -0.8950 C   0  0  0  0  0  3  0  0  0  0  0  0
   10.3120    1.2120    0.2070 C   0  0  0  0  0  0  0  0  0  0  0  0
    9.4440    0.9650    1.4110 C   0  0  0  0  0  0  0  0  0  0  0  0
    8.4870    1.9240    1.5830 F   0  0  0  0  0  0  0  0  0  0  0  0
    8.7630   -0.2130    1.3490 F   0  0  0  0  0  0  0  0  0  0  0  0
   10.1410    0.9450    2.5820 F   0  0  0  0  0  0  0  0  0  0  0  0
  1  2  1  0  0  0  0
  2  3  2  0  0  0  0
  4 22  1  0  0  0  0
  4  3  1  0  0  0  0
  5  4  2  0  0  0  0
  6  5  1  0  0  0  0
  6  1  2  0  0  0  0
  7 20  1  0  0  0  0
  7  8  1  0  0  0  0
  8  1  1  0  0  0  0
  9 12  1  0  0  0  0
  9  7  2  0  0  0  0
 10  9  1  0  0  0  0
 11 10  2  0  0  0  0
 13 10  1  0  0  0  0
 14 13  2  0  0  0  0
 15 14  1  0  0  0  0
 16 15  2  0  0  0  0
 16 17  1  0  0  0  0
 17 18  2  0  0  0  0
 18 13  1  0  0  0  0
 19 20  2  0  0  0  0
 20 21  1  0  0  0  0
 23 28  1  0  0  0  0
 23 22  1  0  0  0  0
 24 23  2  0  0  0  0
 25 26  2  0  0  0  0
 25 24  1  0  0  0  0
 26 27  1  0  0  0  0
 27 28  2  0  0  0  0
 28 29  1  0  0  0  0
 29 30  1  0  0  0  0
 29 32  1  0  0  0  0
 31 29  1  0  0  0  0
M  END
>  <minimizedAffinity>
-6.81487751

$$$$

 OpenBabel09122219323D

 32 34  0  0  0  0  0  0  0  0999 V2000
   11.0570    7.1490   -0.1420 C   0  0  0  0  0  0  0  0  0  0  0  0
   12.2050    7.8250   -0.5700 C   0  0  0  0  0  3  0  0  0  0  0  0
   12.1640    8.6290   -1.7110 C   0  0  0  0  0  3  0  0  0  0  0  0
   10.9770    8.7490   -2.4340 C   0  0  0  0  0  0  0  0  0  0  0  0
    9.8160    8.1070   -1.9940 C   0  0  0  0  0  3  0  0  0  0  0  0
    9.8600    7.3060   -0.8520 C   0  0  0  0  0  3  0  0  0  0  0  0
   10.3190    6.4200    2.1480 C   0  0  0  0  0  0  0  0  0  0  0  0
   11.1160    6.3170    1.0630 C   0  0  0  0  0  2  0  0  0  0  0  0
    9.2630    7.3220    2.1870 N   0  0  0  0  0  4  0  0  0  0  0  0
    9.2350    8.6730    2.4530 C   0  0  0  0  0  0  0  0  0  0  0  0
    8.1560    9.2190    2.7000 O   0  0  0  0  0  0  0  0  0  0  0  0
    8.3370    6.9290    2.1010 H   0  0  0  0  0  0  0  0  0  0  0  0
   10.4370    9.5280    2.3370 C   0  0  0  0  0  0  0  0  0  0  0  0
   11.4080    9.4590    3.3420 C   0  0  0  0  0  3  0  0  0  0  0  0
   12.5150   10.3070    3.3040 C   0  0  0  0  0  3  0  0  0  0  0  0
   12.6450   11.2370    2.2710 C   0  0  0  0  0  3  0  0  0  0  0  0
   11.6660   11.3250    1.2820 C   0  0  0  0  0  3  0  0  0  0  0  0
   10.5540   10.4820    1.3200 C   0  0  0  0  0  3  0  0  0  0  0  0
   10.3740    5.7190    4.4350 O   0  0  0  0  0  1  0  0  0  0  0  0
   10.6360    5.3560    3.2500 C   0  0  0  0  0  0  0  0  0  0  0  0
   11.1510    4.2840    2.8200 O   0  0  0  0  0  0  0  0  0  0  0  0
   10.9970    9.5720   -3.5370 O   0  0  0  0  0  0  0  0  0  0  0  0
    9.7790    9.9240   -4.0810 C   0  0  0  0  0  0  0  0  0  0  0  0
    9.0460    9.0260   -4.8670 C   0  0  0  0  0  3  0  0  0  0  0  0
    7.8350    9.4210   -5.4350 C   0  0  0  0  0  3  0  0  0  0  0  0
    7.3640   10.7160   -5.2360 C   0  0  0  0  0  3  0  0  0  0  0  0
    8.1050   11.6200   -4.4730 C   0  0  0  0  0  3  0  0  0  0  0  0
    9.3280   11.2370   -3.8920 C   0  0  0  0  0  0  0  0  0  0  0  0
   10.1290   12.2100   -3.0730 C   0  0  0  0  0  0  0  0  0  0  0  0
    9.5810   13.4620   -3.0470 F   0  0  0  0  0  0  0  0  0  0  0  0
   10.2450   11.8440   -1.7660 F   0  0  0  0  0  0  0  0  0  0  0  0
   11.3980   12.3880   -3.5360 F   0  0  0  0  0  0  0  0  0  0  0  0
  1  8  1  0  0  0  0
  2  1  1  0  0  0  0
  3  2  2  0  0  0  0
  4  5  2  0  0  0  0
  4  3  1  0  0  0  0
  5  6  1  0  0  0  0
  6  1  2  0  0  0  0
  7  9  2  0  0  0  0
  7 20  1  0  0  0  0
  8  7  1  0  0  0  0
  9 10  1  0  0  0  0
 10 11  2  0  0  0  0
 12  9  1  0  0  0  0
 13 10  1  0  0  0  0
 13 14  1  0  0  0  0
 15 14  2  0  0  0  0
 16 15  1  0  0  0  0
 17 18  1  0  0  0  0
 17 16  2  0  0  0  0
 18 13  2  0  0  0  0
 20 19  1  0  0  0  0
 21 20  2  0  0  0  0
 22  4  1  0  0  0  0
 23 28  1  0  0  0  0
 23 22  1  0  0  0  0
 24 23  2  0  0  0  0
 25 26  2  0  0  0  0
 25 24  1  0  0  0  0
 26 27  1  0  0  0  0
 27 28  2  0  0  0  0
 28 29  1  0  0  0  0
 29 30  1  0  0  0  0
 29 31  1  0  0  0  0
 32 29  1  0  0  0  0
M  END
>  <minimizedAffinity>
-6.66993761

$$$$

 OpenBabel09122219323D

 32 34  0  0  0  0  0  0  0  0999 V2000
   11.0760    7.1350    0.1800 C   0  0  0  0  0  0  0  0  0  0  0  0
    9.8350    7.0170   -0.4560 C   0  0  0  0  0  3  0  0  0  0  0  0
    9.6370    7.5740   -1.7210 C   0  0  0  0  0  3  0  0  0  0  0  0
   10.6760    8.2610   -2.3490 C   0  0  0  0  0  0  0  0  0  0  0  0
   11.9300    8.3530   -1.7380 C   0  0  0  0  0  3  0  0  0  0  0  0
   12.1250    7.7930   -0.4740 C   0  0  0  0  0  3  0  0  0  0  0  0
   10.5290    6.7780    2.6070 C   0  0  0  0  0  0  0  0  0  0  0  0
   11.2690    6.5360    1.5040 C   0  0  0  0  0  2  0  0  0  0  0  0
    9.4100    7.6000    2.5620 N   0  0  0  0  0  4  0  0  0  0  0  0
    9.2920    8.9720    2.5840 C   0  0  0  0  0  0  0  0  0  0  0  0
    8.1900    9.4820    2.8090 O   0  0  0  0  0  0  0  0  0  0  0  0
    8.5130    7.1380    2.6180 H   0  0  0  0  0  0  0  0  0  0  0  0
   10.4130    9.8680    2.2270 C   0  0  0  0  0  0  0  0  0  0  0  0
   10.3510   10.5720    1.0190 C   0  0  0  0  0  3  0  0  0  0  0  0
   11.4260   11.3650    0.6150 C   0  0  0  0  0  3  0  0  0  0  0  0
   12.5710   11.4430    1.4090 C   0  0  0  0  0  3  0  0  0  0  0  0
   12.6460   10.7220    2.6010 C   0  0  0  0  0  3  0  0  0  0  0  0
   11.5750    9.9240    3.0050 C   0  0  0  0  0  3  0  0  0  0  0  0
   10.0540    5.4050    4.5080 O   0  0  0  0  0  1  0  0  0  0  0  0
   10.9900    5.9500    3.8520 C   0  0  0  0  0  0  0  0  0  0  0  0
   12.2360    5.9660    4.0660 O   0  0  0  0  0  0  0  0  0  0  0  0
   10.4230    8.7690   -3.6030 O   0  0  0  0  0  0  0  0  0  0  0  0
    9.7430    9.9670   -3.6720 C   0  0  0  0  0  0  0  0  0  0  0  0
   10.1500   11.0780   -2.9220 C   0  0  0  0  0  3  0  0  0  0  0  0
    9.4220   12.2660   -2.9820 C   0  0  0  0  0  3  0  0  0  0  0  0
    8.2800   12.3410   -3.7750 C   0  0  0  0  0  3  0  0  0  0  0  0
    7.8600   11.2280   -4.5050 C   0  0  0  0  0  3  0  0  0  0  0  0
    8.5840   10.0220   -4.4550 C   0  0  0  0  0  0  0  0  0  0  0  0
    8.1310    8.8210   -5.2380 C   0  0  0  0  0  0  0  0  0  0  0  0
    7.1850    9.1210   -6.1760 F   0  0  0  0  0  0  0  0  0  0  0  0
    9.1400    8.2190   -5.9280 F   0  0  0  0  0  0  0  0  0  0  0  0
    7.5670    7.8530   -4.4610 F   0  0  0  0  0  0  0  0  0  0  0  0
  1  8  1  0  0  0  0
  2  1  1  0  0  0  0
  3  2  2  0  0  0  0
  4  5  2  0  0  0  0
  4  3  1  0  0  0  0
  5  6  1  0  0  0  0
  6  1  2  0  0  0  0
  7 20  1  0  0  0  0
  8  7  1  0  0  0  0
  9 10  1  0  0  0  0
  9  7  2  0  0  0  0
  9 12  1  0  0  0  0
 10 11  2  0  0  0  0
 13 10  1  0  0  0  0
 13 18  1  0  0  0  0
 14 13  2  0  0  0  0
 15 14  1  0  0  0  0
 15 16  2  0  0  0  0
 16 17  1  0  0  0  0
 17 18  2  0  0  0  0
 20 21  2  0  0  0  0
 20 19  1  0  0  0  0
 22  4  1  0  0  0  0
 23 22  1  0  0  0  0
 23 24  1  0  0  0  0
 25 24  2  0  0  0  0
 26 25  1  0  0  0  0
 27 28  1  0  0  0  0
 27 26  2  0  0  0  0
 28 23  2  0  0  0  0
 29 32  1  0  0  0  0
 29 28  1  0  0  0  0
 30 29  1  0  0  0  0
 31 29  1  0  0  0  0
M  END
>  <minimizedAffinity>
-6.66431427

$$$$

 OpenBabel09122219323D

 32 34  0  0  0  0  0  0  0  0999 V2000
    8.2560   -4.9350    0.2000 C   0  0  0  0  0  0  0  0  0  0  0  0
    7.9640   -4.8360    1.5650 C   0  0  0  0  0  3  0  0  0  0  0  0
    6.6980   -5.1820    2.0410 C   0  0  0  0  0  3  0  0  0  0  0  0
    5.7160   -5.6180    1.1510 C   0  0  0  0  0  0  0  0  0  0  0  0
    6.0080   -5.7560   -0.2090 C   0  0  0  0  0  3  0  0  0  0  0  0
    7.2760   -5.4090   -0.6810 C   0  0  0  0  0  3  0  0  0  0  0  0
   10.1600   -3.3510   -0.2260 C   0  0  0  0  0  0  0  0  0  0  0  0
    9.5930   -4.5750   -0.2810 C   0  0  0  0  0  2  0  0  0  0  0  0
    9.5230   -2.2850    0.3950 N   0  0  0  0  0  4  0  0  0  0  0  0
    9.7480   -0.9280    0.3220 C   0  0  0  0  0  0  0  0  0  0  0  0
    9.2400   -0.1840    1.1670 O   0  0  0  0  0  0  0  0  0  0  0  0
    8.8360   -2.5220    1.0960 H   0  0  0  0  0  0  0  0  0  0  0  0
   10.4790   -0.3060   -0.8030 C   0  0  0  0  0  0  0  0  0  0  0  0
   11.1770    0.8850   -0.5720 C   0  0  0  0  0  3  0  0  0  0  0  0
   11.8120    1.5390   -1.6280 C   0  0  0  0  0  3  0  0  0  0  0  0
   11.7370    1.0140   -2.9190 C   0  0  0  0  0  3  0  0  0  0  0  0
   11.0210   -0.1590   -3.1560 C   0  0  0  0  0  3  0  0  0  0  0  0
   10.3790   -0.8130   -2.1030 C   0  0  0  0  0  3  0  0  0  0  0  0
   11.7180   -3.7150   -2.0060 O   0  0  0  0  0  0  0  0  0  0  0  0
   11.6130   -3.3200   -0.8070 C   0  0  0  0  0  0  0  0  0  0  0  0
   12.5020   -2.9420    0.0090 O   0  0  0  0  0  1  0  0  0  0  0  0
    4.4950   -5.9650    1.6860 O   0  0  0  0  0  0  0  0  0  0  0  0
    4.1080   -5.3180    2.8400 C   0  0  0  0  0  0  0  0  0  0  0  0
    4.0470   -3.9200    2.9070 C   0  0  0  0  0  3  0  0  0  0  0  0
    3.6880   -3.2920    4.0980 C   0  0  0  0  0  3  0  0  0  0  0  0
    3.4070   -4.0550    5.2290 C   0  0  0  0  0  3  0  0  0  0  0  0
    3.4910   -5.4470    5.1720 C   0  0  0  0  0  3  0  0  0  0  0  0
    3.8510   -6.0960    3.9760 C   0  0  0  0  0  0  0  0  0  0  0  0
    3.9450   -7.5960    3.9130 C   0  0  0  0  0  0  0  0  0  0  0  0
    5.1310   -8.0340    3.3950 F   0  0  0  0  0  0  0  0  0  0  0  0
    3.8470   -8.1910    5.1340 F   0  0  0  0  0  0  0  0  0  0  0  0
    2.9840   -8.1630    3.1310 F   0  0  0  0  0  0  0  0  0  0  0  0
  1  2  1  0  0  0  0
  2  3  2  0  0  0  0
  4 22  1  0  0  0  0
  4  3  1  0  0  0  0
  5  4  2  0  0  0  0
  6  5  1  0  0  0  0
  6  1  2  0  0  0  0
  7  9  2  0  0  0  0
  8  7  1  0  0  0  0
  8  1  1  0  0  0  0
  9 12  1  0  0  0  0
 10  9  1  0  0  0  0
 10 11  2  0  0  0  0
 13 14  1  0  0  0  0
 13 10  1  0  0  0  0
 15 14  2  0  0  0  0
 16 15  1  0  0  0  0
 17 16  2  0  0  0  0
 17 18  1  0  0  0  0
 18 13  2  0  0  0  0
 19 20  2  0  0  0  0
 20  7  1  0  0  0  0
 20 21  1  0  0  0  0
 22 23  1  0  0  0  0
 23 24  2  0  0  0  0
 23 28  1  0  0  0  0
 24 25  1  0  0  0  0
 25 26  2  0  0  0  0
 27 26  1  0  0  0  0
 28 27  2  0  0  0  0
 29 28  1  0  0  0  0
 29 31  1  0  0  0  0
 30 29  1  0  0  0  0
 32 29  1  0  0  0  0
M  END
>  <minimizedAffinity>
-6.63486052

$$$$

 OpenBabel09122219323D

 32 34  0  0  0  0  0  0  0  0999 V2000
   11.1270    5.0210    1.6880 C   0  0  0  0  0  0  0  0  0  0  0  0
   12.1440    4.0730    1.5250 C   0  0  0  0  0  3  0  0  0  0  0  0
   11.9920    3.0280    0.6110 C   0  0  0  0  0  3  0  0  0  0  0  0
   10.8170    2.9230   -0.1340 C   0  0  0  0  0  0  0  0  0  0  0  0
    9.8120    3.8840   -0.0060 C   0  0  0  0  0  3  0  0  0  0  0  0
    9.9680    4.9280    0.9080 C   0  0  0  0  0  3  0  0  0  0  0  0
   11.9790    7.2660    2.4290 C   0  0  0  0  0  0  0  0  0  0  0  0
   11.3080    6.1150    2.6460 C   0  0  0  0  0  2  0  0  0  0  0  0
   12.5200    7.5650    1.1850 N   0  0  0  0  0  4  0  0  0  0  0  0
   11.9840    8.2120    0.0950 C   0  0  0  0  0  0  0  0  0  0  0  0
   12.5490    8.1260   -0.9990 O   0  0  0  0  0  0  0  0  0  0  0  0
   13.4280    7.1680    0.9870 H   0  0  0  0  0  0  0  0  0  0  0  0
   10.8150    9.1130    0.2050 C   0  0  0  0  0  0  0  0  0  0  0  0
   11.0380   10.4880    0.3320 C   0  0  0  0  0  3  0  0  0  0  0  0
    9.9620   11.3570    0.5160 C   0  0  0  0  0  3  0  0  0  0  0  0
    8.6640   10.8520    0.5920 C   0  0  0  0  0  3  0  0  0  0  0  0
    8.4410    9.4780    0.4920 C   0  0  0  0  0  3  0  0  0  0  0  0
    9.5150    8.6060    0.3120 C   0  0  0  0  0  3  0  0  0  0  0  0
   12.5790    9.3250    3.4920 O   0  0  0  0  0  0  0  0  0  0  0  0
   11.9570    8.2330    3.6590 C   0  0  0  0  0  0  0  0  0  0  0  0
   11.3560    7.7840    4.6760 O   0  0  0  0  0  1  0  0  0  0  0  0
   10.7380    1.8820   -1.0330 O   0  0  0  0  0  0  0  0  0  0  0  0
   10.4000    0.6430   -0.5320 C   0  0  0  0  0  0  0  0  0  0  0  0
    9.6940    0.5110    0.6700 C   0  0  0  0  0  3  0  0  0  0  0  0
    9.3980   -0.7560    1.1720 C   0  0  0  0  0  3  0  0  0  0  0  0
    9.8210   -1.8910    0.4860 C   0  0  0  0  0  3  0  0  0  0  0  0
   10.5460   -1.7620   -0.7000 C   0  0  0  0  0  3  0  0  0  0  0  0
   10.8520   -0.4910   -1.2200 C   0  0  0  0  0  0  0  0  0  0  0  0
   11.6350   -0.3500   -2.4960 C   0  0  0  0  0  0  0  0  0  0  0  0
   12.2390   -1.5130   -2.8820 F   0  0  0  0  0  0  0  0  0  0  0  0
   10.8690    0.0240   -3.5580 F   0  0  0  0  0  0  0  0  0  0  0  0
   12.6440    0.5620   -2.4100 F   0  0  0  0  0  0  0  0  0  0  0  0
  1  8  1  0  0  0  0
  2  1  1  0  0  0  0
  3  2  2  0  0  0  0
  4  5  2  0  0  0  0
  4  3  1  0  0  0  0
  5  6  1  0  0  0  0
  6  1  2  0  0  0  0
  7  8  1  0  0  0  0
  7 20  1  0  0  0  0
  9  7  2  3  0  0  0
 10 13  1  0  0  0  0
 10  9  1  0  0  0  0
 11 10  2  0  0  0  0
 12  9  1  0  0  0  0
 13 18  2  0  0  0  0
 13 14  1  0  0  0  0
 14 15  2  0  0  0  0
 15 16  1  0  0  0  0
 17 16  2  0  0  0  0
 18 17  1  0  0  0  0
 19 20  2  0  0  0  0
 20 21  1  0  0  0  0
 22 23  1  0  0  0  0
 22  4  1  0  0  0  0
 23 24  1  0  0  0  0
 24 25  2  0  0  0  0
 26 25  1  0  0  0  0
 27 26  2  0  0  0  0
 28 27  1  0  0  0  0
 28 23  2  0  0  0  0
 29 32  1  0  0  0  0
 29 28  1  0  0  0  0
 30 29  1  0  0  0  0
 31 29  1  0  0  0  0
M  END
>  <minimizedAffinity>
-6.47376728

$$$$

 OpenBabel09122219323D

 32 34  0  0  0  0  0  0  0  0999 V2000
    9.2270    8.7710    0.8610 C   0  0  0  0  0  0  0  0  0  0  0  0
    9.8990    8.1600   -0.2030 C   0  0  0  0  0  3  0  0  0  0  0  0
   10.7180    7.0520    0.0240 C   0  0  0  0  0  3  0  0  0  0  0  0
   10.8750    6.5590    1.3200 C   0  0  0  0  0  0  0  0  0  0  0  0
   10.1790    7.1390    2.3840 C   0  0  0  0  0  3  0  0  0  0  0  0
    9.3610    8.2460    2.1520 C   0  0  0  0  0  3  0  0  0  0  0  0
    8.7650   11.1460    0.1820 C   0  0  0  0  0  0  0  0  0  0  0  0
    8.3650    9.9280    0.6020 C   0  0  0  0  0  2  0  0  0  0  0  0
   10.0930   11.4020   -0.1350 N   0  0  0  0  0  4  0  0  0  0  0  0
   11.1590   11.7690    0.6560 C   0  0  0  0  0  0  0  0  0  0  0  0
   12.1840   12.2080    0.1260 O   0  0  0  0  0  0  0  0  0  0  0  0
   10.3220   11.4220   -1.1190 H   0  0  0  0  0  0  0  0  0  0  0  0
   11.1730   11.5450    2.1190 C   0  0  0  0  0  0  0  0  0  0  0  0
   12.0180   10.5570    2.6370 C   0  0  0  0  0  3  0  0  0  0  0  0
   11.9990   10.2670    4.0020 C   0  0  0  0  0  3  0  0  0  0  0  0
   11.1240   10.9500    4.8470 C   0  0  0  0  0  3  0  0  0  0  0  0
   10.2620   11.9160    4.3290 C   0  0  0  0  0  3  0  0  0  0  0  0
   10.2750   12.2060    2.9630 C   0  0  0  0  0  3  0  0  0  0  0  0
    7.1470   12.6840    1.0430 O   0  0  0  0  0  1  0  0  0  0  0  0
    7.5810   12.1490   -0.0200 C   0  0  0  0  0  0  0  0  0  0  0  0
    7.1830   12.2650   -1.2140 O   0  0  0  0  0  0  0  0  0  0  0  0
   11.6790    5.4520    1.4750 O   0  0  0  0  0  0  0  0  0  0  0  0
   11.2040    4.4370    2.2780 C   0  0  0  0  0  0  0  0  0  0  0  0
   11.3380    4.4870    3.6710 C   0  0  0  0  0  3  0  0  0  0  0  0
   10.8820    3.4290    4.4560 C   0  0  0  0  0  3  0  0  0  0  0  0
   10.3070    2.3130    3.8520 C   0  0  0  0  0  3  0  0  0  0  0  0
   10.1930    2.2510    2.4620 C   0  0  0  0  0  3  0  0  0  0  0  0
   10.6490    3.3110    1.6560 C   0  0  0  0  0  0  0  0  0  0  0  0
   10.5300    3.2440    0.1590 C   0  0  0  0  0  0  0  0  0  0  0  0
    9.5190    4.0220   -0.3310 F   0  0  0  0  0  0  0  0  0  0  0  0
   11.6520    3.6680   -0.4870 F   0  0  0  0  0  0  0  0  0  0  0  0
   10.2700    1.9890   -0.3060 F   0  0  0  0  0  0  0  0  0  0  0  0
  1  6  1  0  0  0  0
  2  3  1  0  0  0  0
  2  1  2  0  0  0  0
  3  4  2  0  0  0  0
  4 22  1  0  0  0  0
  4  5  1  0  0  0  0
  6  5  2  0  0  0  0
  7  8  1  0  0  0  0
  8  1  1  0  0  0  0
  9  7  2  0  0  0  0
  9 10  1  0  0  0  0
 10 13  1  0  0  0  0
 11 10  2  0  0  0  0
 12  9  1  0  0  0  0
 13 14  2  0  0  0  0
 13 18  1  0  0  0  0
 14 15  1  0  0  0  0
 15 16  2  0  0  0  0
 17 16  1  0  0  0  0
 18 17  2  0  0  0  0
 20  7  1  0  0  0  0
 20 19  1  0  0  0  0
 21 20  2  0  0  0  0
 22 23  1  0  0  0  0
 23 24  1  0  0  0  0
 24 25  2  0  0  0  0
 26 25  1  0  0  0  0
 27 26  2  0  0  0  0
 28 23  2  0  0  0  0
 28 27  1  0  0  0  0
 29 28  1  0  0  0  0
 30 29  1  0  0  0  0
 31 29  1  0  0  0  0
 32 29  1  0  0  0  0
M  END
>  <minimizedAffinity>
-6.42420101

$$$$

 OpenBabel09122219323D

 32 34  0  0  0  0  0  0  0  0999 V2000
   10.7410    9.4340    2.1910 C   0  0  0  0  0  0  0  0  0  0  0  0
   10.0080   10.4380    2.8330 C   0  0  0  0  0  3  0  0  0  0  0  0
    9.7810   11.6600    2.1970 C   0  0  0  0  0  3  0  0  0  0  0  0
   10.2970   11.8840    0.9200 C   0  0  0  0  0  0  0  0  0  0  0  0
   10.9980   10.8750    0.2550 C   0  0  0  0  0  3  0  0  0  0  0  0
   11.2220    9.6540    0.8950 C   0  0  0  0  0  3  0  0  0  0  0  0
   10.3220    6.9930    2.6200 C   0  0  0  0  0  0  0  0  0  0  0  0
   10.9620    8.1540    2.8720 C   0  0  0  0  0  2  0  0  0  0  0  0
    9.4030    6.8830    1.5850 N   0  0  0  0  0  4  0  0  0  0  0  0
    9.4670    6.2150    0.3820 C   0  0  0  0  0  0  0  0  0  0  0  0
    8.6460    6.4760   -0.5010 O   0  0  0  0  0  0  0  0  0  0  0  0
    8.5750    7.4580    1.6590 H   0  0  0  0  0  0  0  0  0  0  0  0
   10.4130    5.1020    0.1450 C   0  0  0  0  0  0  0  0  0  0  0  0
    9.9640    3.7900    0.3320 C   0  0  0  0  0  3  0  0  0  0  0  0
   10.8500    2.7210    0.1920 C   0  0  0  0  0  3  0  0  0  0  0  0
   12.1900    2.9620   -0.1160 C   0  0  0  0  0  3  0  0  0  0  0  0
   12.6450    4.2710   -0.2770 C   0  0  0  0  0  3  0  0  0  0  0  0
   11.7630    5.3430   -0.1330 C   0  0  0  0  0  3  0  0  0  0  0  0
    9.9960    5.4260    4.3990 O   0  0  0  0  0  1  0  0  0  0  0  0
   10.8190    5.8090    3.5150 C   0  0  0  0  0  0  0  0  0  0  0  0
   11.9940    5.4140    3.2660 O   0  0  0  0  0  0  0  0  0  0  0  0
   10.0200   13.1010    0.3380 O   0  0  0  0  0  0  0  0  0  0  0  0
    9.7890   13.1110   -1.0210 C   0  0  0  0  0  0  0  0  0  0  0  0
   10.8120   13.4060   -1.9320 C   0  0  0  0  0  3  0  0  0  0  0  0
   10.5410   13.4450   -3.2990 C   0  0  0  0  0  3  0  0  0  0  0  0
    9.2480   13.2070   -3.7580 C   0  0  0  0  0  3  0  0  0  0  0  0
    8.2220   12.9360   -2.8510 C   0  0  0  0  0  3  0  0  0  0  0  0
    8.4800   12.8930   -1.4680 C   0  0  0  0  0  0  0  0  0  0  0  0
    7.3750   12.6040   -0.4890 C   0  0  0  0  0  0  0  0  0  0  0  0
    6.1300   12.7480   -1.0330 F   0  0  0  0  0  0  0  0  0  0  0  0
    7.4090   11.3330   -0.0020 F   0  0  0  0  0  0  0  0  0  0  0  0
    7.3870   13.4310    0.5950 F   0  0  0  0  0  0  0  0  0  0  0  0
  1  2  1  0  0  0  0
  1  8  1  0  0  0  0
  3  2  2  0  0  0  0
  4  3  1  0  0  0  0
  5  6  1  0  0  0  0
  5  4  2  0  0  0  0
  6  1  2  0  0  0  0
  7  8  1  0  0  0  0
  7 20  1  0  0  0  0
  9 12  1  0  0  0  0
  9  7  2  0  0  0  0
 10  9  1  0  0  0  0
 11 10  2  0  0  0  0
 13 14  1  0  0  0  0
 13 10  1  0  0  0  0
 15 14  2  0  0  0  0
 16 15  1  0  0  0  0
 17 18  1  0  0  0  0
 17 16  2  0  0  0  0
 18 13  2  0  0  0  0
 20 19  1  0  0  0  0
 21 20  2  0  0  0  0
 22  4  1  0  0  0  0
 23 22  1  0  0  0  0
 24 23  2  0  0  0  0
 25 24  1  0  0  0  0
 26 25  2  0  0  0  0
 26 27  1  0  0  0  0
 27 28  2  0  0  0  0
 28 23  1  0  0  0  0
 28 29  1  0  0  0  0
 29 31  1  0  0  0  0
 29 32  1  0  0  0  0
 30 29  1  0  0  0  0
M  END
>  <minimizedAffinity>
-6.34727764

$$$$

 OpenBabel09122219323D

 32 34  0  0  0  0  0  0  0  0999 V2000
    9.3830    9.1190    0.4280 C   0  0  0  0  0  0  0  0  0  0  0  0
    9.2350    7.9170   -0.2730 C   0  0  0  0  0  3  0  0  0  0  0  0
   10.1450    6.8750   -0.0830 C   0  0  0  0  0  3  0  0  0  0  0  0
   11.2120    7.0370    0.8000 C   0  0  0  0  0  0  0  0  0  0  0  0
   11.3480    8.2190    1.5320 C   0  0  0  0  0  3  0  0  0  0  0  0
   10.4350    9.2590    1.3410 C   0  0  0  0  0  3  0  0  0  0  0  0
    8.6500   11.3830   -0.3800 C   0  0  0  0  0  0  0  0  0  0  0  0
    8.4130   10.1990    0.2220 C   0  0  0  0  0  2  0  0  0  0  0  0
    9.8800   11.6670   -0.9600 N   0  0  0  0  0  4  0  0  0  0  0  0
   10.4320   11.2680   -2.1570 C   0  0  0  0  0  0  0  0  0  0  0  0
   11.6430   11.4180   -2.3460 O   0  0  0  0  0  0  0  0  0  0  0  0
   10.5380   12.1740   -0.3850 H   0  0  0  0  0  0  0  0  0  0  0  0
    9.6090   10.7730   -3.2820 C   0  0  0  0  0  0  0  0  0  0  0  0
    8.7560   11.6700   -3.9340 C   0  0  0  0  0  3  0  0  0  0  0  0
    7.9090   11.2190   -4.9470 C   0  0  0  0  0  3  0  0  0  0  0  0
    7.9000    9.8680   -5.2980 C   0  0  0  0  0  3  0  0  0  0  0  0
    8.7300    8.9670   -4.6310 C   0  0  0  0  0  3  0  0  0  0  0  0
    9.5750    9.4140   -3.6140 C   0  0  0  0  0  3  0  0  0  0  0  0
    6.9070   12.4570   -1.6180 O   0  0  0  0  0  0  0  0  0  0  0  0
    7.3850   12.3000   -0.4560 C   0  0  0  0  0  0  0  0  0  0  0  0
    7.0250   12.8000    0.6490 O   0  0  0  0  0  1  0  0  0  0  0  0
   12.0620    5.9650    0.9590 O   0  0  0  0  0  0  0  0  0  0  0  0
   11.4920    4.7090    0.9850 C   0  0  0  0  0  0  0  0  0  0  0  0
   11.2580    3.9910   -0.1950 C   0  0  0  0  0  3  0  0  0  0  0  0
   10.6470    2.7390   -0.1410 C   0  0  0  0  0  3  0  0  0  0  0  0
   10.2530    2.2100    1.0850 C   0  0  0  0  0  3  0  0  0  0  0  0
   10.4650    2.9340    2.2600 C   0  0  0  0  0  3  0  0  0  0  0  0
   11.0810    4.1980    2.2230 C   0  0  0  0  0  0  0  0  0  0  0  0
   11.3060    4.9820    3.4860 C   0  0  0  0  0  0  0  0  0  0  0  0
   10.3930    5.9840    3.6620 F   0  0  0  0  0  0  0  0  0  0  0  0
   11.2210    4.2200    4.6120 F   0  0  0  0  0  0  0  0  0  0  0  0
   12.5210    5.5980    3.5290 F   0  0  0  0  0  0  0  0  0  0  0  0
  1  6  1  0  0  0  0
  2  3  1  0  0  0  0
  2  1  2  0  0  0  0
  3  4  2  0  0  0  0
  4 22  1  0  0  0  0
  4  5  1  0  0  0  0
  6  5  2  0  0  0  0
  7  8  1  0  0  0  0
  8  1  1  0  0  0  0
  9 12  1  0  0  0  0
  9  7  2  3  0  0  0
 10  9  1  0  0  0  0
 11 10  2  0  0  0  0
 13 10  1  0  0  0  0
 14 13  2  0  0  0  0
 15 14  1  0  0  0  0
 16 15  2  0  0  0  0
 16 17  1  0  0  0  0
 17 18  2  0  0  0  0
 18 13  1  0  0  0  0
 19 20  2  0  0  0  0
 20  7  1  0  0  0  0
 20 21  1  0  0  0  0
 22 23  1  0  0  0  0
 23 28  1  0  0  0  0
 24 25  1  0  0  0  0
 24 23  2  0  0  0  0
 25 26  2  0  0  0  0
 26 27  1  0  0  0  0
 28 27  2  0  0  0  0
 28 29  1  0  0  0  0
 29 32  1  0  0  0  0
 29 30  1  0  0  0  0
 29 31  1  0  0  0  0
M  END
>  <minimizedAffinity>
-6.31002378

$$$$
