
 OpenBabel09122222393D

 32 34  0  0  0  0  0  0  0  0999 V2000
   11.1270    5.0210    1.6880 C   0  0  0  0  0  0  0  0  0  0  0  0
   12.1440    4.0730    1.5250 C   0  0  0  0  0  3  0  0  0  0  0  0
   11.9920    3.0280    0.6110 C   0  0  0  0  0  3  0  0  0  0  0  0
   10.8170    2.9230   -0.1340 C   0  0  0  0  0  0  0  0  0  0  0  0
    9.8120    3.8840   -0.0060 C   0  0  0  0  0  3  0  0  0  0  0  0
    9.9680    4.9280    0.9080 C   0  0  0  0  0  3  0  0  0  0  0  0
   11.9790    7.2660    2.4290 C   0  0  0  0  0  0  0  0  0  0  0  0
   11.3080    6.1150    2.6460 C   0  0  0  0  0  2  0  0  0  0  0  0
   12.5200    7.5650    1.1850 N   0  0  0  0  0  4  0  0  0  0  0  0
   11.9840    8.2120    0.0950 C   0  0  0  0  0  0  0  0  0  0  0  0
   12.5490    8.1260   -0.9990 O   0  0  0  0  0  0  0  0  0  0  0  0
   13.4280    7.1680    0.9870 H   0  0  0  0  0  0  0  0  0  0  0  0
   10.8150    9.1130    0.2050 C   0  0  0  0  0  0  0  0  0  0  0  0
   11.0380   10.4880    0.3320 C   0  0  0  0  0  3  0  0  0  0  0  0
    9.9620   11.3570    0.5160 C   0  0  0  0  0  3  0  0  0  0  0  0
    8.6640   10.8520    0.5920 C   0  0  0  0  0  3  0  0  0  0  0  0
    8.4410    9.4780    0.4920 C   0  0  0  0  0  3  0  0  0  0  0  0
    9.5150    8.6060    0.3120 C   0  0  0  0  0  3  0  0  0  0  0  0
   12.5790    9.3250    3.4920 O   0  0  0  0  0  0  0  0  0  0  0  0
   11.9570    8.2330    3.6590 C   0  0  0  0  0  0  0  0  0  0  0  0
   11.3560    7.7840    4.6760 O   0  0  0  0  0  1  0  0  0  0  0  0
   10.7380    1.8820   -1.0330 O   0  0  0  0  0  0  0  0  0  0  0  0
   10.4000    0.6430   -0.5320 C   0  0  0  0  0  0  0  0  0  0  0  0
    9.6940    0.5110    0.6700 C   0  0  0  0  0  3  0  0  0  0  0  0
    9.3980   -0.7560    1.1720 C   0  0  0  0  0  3  0  0  0  0  0  0
    9.8210   -1.8910    0.4860 C   0  0  0  0  0  3  0  0  0  0  0  0
   10.5460   -1.7620   -0.7000 C   0  0  0  0  0  3  0  0  0  0  0  0
   10.8520   -0.4910   -1.2200 C   0  0  0  0  0  0  0  0  0  0  0  0
   11.6350   -0.3500   -2.4960 C   0  0  0  0  0  0  0  0  0  0  0  0
   12.2390   -1.5130   -2.8820 F   0  0  0  0  0  0  0  0  0  0  0  0
   10.8690    0.0240   -3.5580 F   0  0  0  0  0  0  0  0  0  0  0  0
   12.6440    0.5620   -2.4100 F   0  0  0  0  0  0  0  0  0  0  0  0
  1  8  1  0  0  0  0
  2  1  1  0  0  0  0
  3  2  2  0  0  0  0
  4  5  2  0  0  0  0
  4  3  1  0  0  0  0
  5  6  1  0  0  0  0
  6  1  2  0  0  0  0
  7  8  1  0  0  0  0
  7 20  1  0  0  0  0
  9  7  2  3  0  0  0
 10 13  1  0  0  0  0
 10  9  1  0  0  0  0
 11 10  2  0  0  0  0
 12  9  1  0  0  0  0
 13 18  2  0  0  0  0
 13 14  1  0  0  0  0
 14 15  2  0  0  0  0
 15 16  1  0  0  0  0
 17 16  2  0  0  0  0
 18 17  1  0  0  0  0
 19 20  2  0  0  0  0
 20 21  1  0  0  0  0
 22 23  1  0  0  0  0
 22  4  1  0  0  0  0
 23 24  1  0  0  0  0
 24 25  2  0  0  0  0
 26 25  1  0  0  0  0
 27 26  2  0  0  0  0
 28 27  1  0  0  0  0
 28 23  2  0  0  0  0
 29 32  1  0  0  0  0
 29 28  1  0  0  0  0
 30 29  1  0  0  0  0
 31 29  1  0  0  0  0
M  END
>  <minimizedAffinity>
-6.47376728

$$$$
