
 OpenBabel09122218213D

 23 24  0  0  0  0  0  0  0  0999 V2000
    0.9090    2.6490   -5.5040 C   0  0  0  0  0  0  0  0  0  0  0  0
    0.1850    3.5420   -6.0860 N   0  0  0  0  0  0  0  0  0  0  0  0
    0.7500    4.2120   -7.1530 C   0  0  0  0  0  0  0  0  0  0  0  0
    2.0040    3.9990   -7.5960 C   0  0  0  0  0  0  0  0  0  0  0  0
    2.8010    2.9640   -6.9070 C   0  0  0  0  0  0  0  0  0  0  0  0
    3.9500    2.6870   -7.2280 O   0  0  0  0  0  0  0  0  0  0  0  0
    2.1720    2.3290   -5.8770 N   0  0  0  0  0  0  0  0  0  0  0  0
    2.6730    1.6090   -5.3790 H   0  0  0  0  0  0  0  0  0  0  0  0
   -0.1140    5.2310   -7.7880 C   0  0  0  0  0  0  0  0  0  0  0  0
   -1.4210    4.9240   -8.1890 C   0  0  0  0  0  3  0  0  0  0  0  0
   -2.2270    5.9000   -8.7830 C   0  0  0  0  0  3  0  0  0  0  0  0
   -1.7300    7.1890   -8.9680 C   0  0  0  0  0  0  0  0  0  0  0  0
   -2.8200    8.5090   -9.7670 Br  0  0  0  0  0  0  0  0  0  0  0  0
   -0.4370    7.5120   -8.5620 C   0  0  0  0  0  3  0  0  0  0  0  0
    0.3680    6.5360   -7.9690 C   0  0  0  0  0  3  0  0  0  0  0  0
    2.6510    4.7660   -8.7370 C   0  0  0  0  0  2  0  0  0  0  0  0
    3.1870    5.4030   -9.6850 N   0  0  0  0  0  1  0  0  0  0  0  0
    0.3520    1.7090   -4.1620 S   0  0  0  0  0  0  0  0  0  0  0  0
   -0.0660    3.0200   -2.9730 C   0  0  0  0  0  2  0  0  0  0  0  0
   -1.4060    2.7740   -2.2740 C   0  0  0  0  0  2  0  0  0  0  0  0
   -2.1660    4.0180   -1.8000 C   0  0  0  0  0  2  0  0  0  0  0  0
   -3.6210    3.3830    0.2020 C   0  0  0  0  0  1  0  0  0  0  0  0
   -2.3870    4.1250   -0.2900 C   0  0  0  0  0  2  0  0  0  0  0  0
  1 18  1  0  0  0  0
  2  1  2  0  0  0  0
  3  2  1  0  0  0  0
  4  3  2  0  0  0  0
  4  5  1  0  0  0  0
  5  7  1  0  0  0  0
  6  5  2  0  0  0  0
  7  1  1  0  0  0  0
  7  8  1  0  0  0  0
  9  3  1  0  0  0  0
 10  9  2  0  0  0  0
 11 10  1  0  0  0  0
 12 11  2  0  0  0  0
 12 14  1  0  0  0  0
 13 12  1  0  0  0  0
 14 15  2  0  0  0  0
 15  9  1  0  0  0  0
 16  4  1  0  0  0  0
 17 16  1  0  0  0  0
 18 19  1  0  0  0  0
 19 20  1  0  0  0  0
 20 21  1  0  0  0  0
 21 23  1  0  0  0  0
 23 22  1  0  0  0  0
M  END
>  <minimizedAffinity>
39.8834

$$$$

 OpenBabel09122218213D

 23 24  0  0  0  0  0  0  0  0999 V2000
    1.0990    2.8260   -5.4690 C   0  0  0  0  0  0  0  0  0  0  0  0
    0.3670    3.7190   -6.0410 N   0  0  0  0  0  0  0  0  0  0  0  0
    0.8760    4.3160   -7.1770 C   0  0  0  0  0  0  0  0  0  0  0  0
    2.0870    4.0350   -7.6960 C   0  0  0  0  0  0  0  0  0  0  0  0
    2.8940    3.0020   -7.0160 C   0  0  0  0  0  0  0  0  0  0  0  0
    4.0070    2.6670   -7.4040 O   0  0  0  0  0  0  0  0  0  0  0  0
    2.3190    2.4400   -5.9140 N   0  0  0  0  0  0  0  0  0  0  0  0
    2.8290    1.7250   -5.4190 H   0  0  0  0  0  0  0  0  0  0  0  0
    0.0050    5.3380   -7.7970 C   0  0  0  0  0  0  0  0  0  0  0  0
    0.4770    6.6330   -8.0530 C   0  0  0  0  0  3  0  0  0  0  0  0
   -0.3580    7.5860   -8.6440 C   0  0  0  0  0  3  0  0  0  0  0  0
   -1.6630    7.2430   -8.9900 C   0  0  0  0  0  0  0  0  0  0  0  0
   -2.7910    8.5300   -9.7930 Br  0  0  0  0  0  0  0  0  0  0  0  0
   -2.1410    5.9560   -8.7540 C   0  0  0  0  0  3  0  0  0  0  0  0
   -1.3080    5.0040   -8.1630 C   0  0  0  0  0  3  0  0  0  0  0  0
    2.6750    4.7230   -8.9160 C   0  0  0  0  0  2  0  0  0  0  0  0
    3.1640    5.2940   -9.9290 N   0  0  0  0  0  1  0  0  0  0  0  0
    0.6080    1.9700   -4.0470 S   0  0  0  0  0  0  0  0  0  0  0  0
   -0.9540    1.2280   -4.6130 C   0  0  0  0  0  2  0  0  0  0  0  0
   -1.9330    0.9720   -3.4650 C   0  0  0  0  0  2  0  0  0  0  0  0
   -2.3210   -0.4900   -3.2140 C   0  0  0  0  0  2  0  0  0  0  0  0
   -4.3280   -1.4530   -4.4670 C   0  0  0  0  0  1  0  0  0  0  0  0
   -2.8190   -1.2630   -4.4370 C   0  0  0  0  0  2  0  0  0  0  0  0
  1 18  1  0  0  0  0
  2  1  2  0  0  0  0
  3  2  1  0  0  0  0
  4  3  2  0  0  0  0
  4  5  1  0  0  0  0
  5  7  1  0  0  0  0
  6  5  2  0  0  0  0
  7  1  1  0  0  0  0
  7  8  1  0  0  0  0
  9  3  1  0  0  0  0
 10  9  1  0  0  0  0
 11 10  2  0  0  0  0
 12 14  2  0  0  0  0
 12 11  1  0  0  0  0
 13 12  1  0  0  0  0
 14 15  1  0  0  0  0
 15  9  2  0  0  0  0
 16  4  1  0  0  0  0
 17 16  1  0  0  0  0
 19 18  1  0  0  0  0
 19 20  1  0  0  0  0
 20 21  1  0  0  0  0
 22 23  1  0  0  0  0
 23 21  1  0  0  0  0
M  END
>  <minimizedAffinity>
41.8995094

$$$$

 OpenBabel09122218213D

 23 24  0  0  0  0  0  0  0  0999 V2000
    0.9850    2.7990   -5.4650 C   0  0  0  0  0  0  0  0  0  0  0  0
    0.2670    3.6930   -6.0530 N   0  0  0  0  0  0  0  0  0  0  0  0
    0.8080    4.3010   -7.1680 C   0  0  0  0  0  0  0  0  0  0  0  0
    2.0360    4.0290   -7.6510 C   0  0  0  0  0  0  0  0  0  0  0  0
    2.8270    2.9940   -6.9540 C   0  0  0  0  0  0  0  0  0  0  0  0
    3.9520    2.6670   -7.3090 O   0  0  0  0  0  0  0  0  0  0  0  0
    2.2210    2.4230   -5.8740 N   0  0  0  0  0  0  0  0  0  0  0  0
    2.7180    1.7060   -5.3680 H   0  0  0  0  0  0  0  0  0  0  0  0
   -0.0480    5.3230   -7.8080 C   0  0  0  0  0  0  0  0  0  0  0  0
   -1.3680    5.0330   -8.1780 C   0  0  0  0  0  3  0  0  0  0  0  0
   -2.1660    6.0120   -8.7780 C   0  0  0  0  0  3  0  0  0  0  0  0
   -1.6480    7.2860   -9.0000 C   0  0  0  0  0  0  0  0  0  0  0  0
   -2.7280    8.6110   -9.8070 Br  0  0  0  0  0  0  0  0  0  0  0  0
   -0.3420    7.5930   -8.6250 C   0  0  0  0  0  3  0  0  0  0  0  0
    0.4560    6.6140   -8.0270 C   0  0  0  0  0  3  0  0  0  0  0  0
    2.6590    4.7280   -8.8470 C   0  0  0  0  0  2  0  0  0  0  0  0
    3.1770    5.3080   -9.8410 N   0  0  0  0  0  1  0  0  0  0  0  0
    0.4540    1.9320   -4.0640 S   0  0  0  0  0  0  0  0  0  0  0  0
   -1.1040    1.2150   -4.6730 C   0  0  0  0  0  2  0  0  0  0  0  0
   -1.8890    0.4960   -3.5730 C   0  0  0  0  0  2  0  0  0  0  0  0
   -2.5300   -0.8420   -3.9570 C   0  0  0  0  0  2  0  0  0  0  0  0
   -4.5700   -2.0990   -4.8430 C   0  0  0  0  0  1  0  0  0  0  0  0
   -4.0220   -0.7910   -4.2940 C   0  0  0  0  0  2  0  0  0  0  0  0
  1 18  1  0  0  0  0
  2  1  2  0  0  0  0
  3  2  1  0  0  0  0
  4  3  2  0  0  0  0
  4  5  1  0  0  0  0
  5  7  1  0  0  0  0
  6  5  2  0  0  0  0
  7  1  1  0  0  0  0
  7  8  1  0  0  0  0
  9  3  1  0  0  0  0
 10  9  2  0  0  0  0
 11 10  1  0  0  0  0
 12 11  2  0  0  0  0
 12 14  1  0  0  0  0
 13 12  1  0  0  0  0
 14 15  2  0  0  0  0
 15  9  1  0  0  0  0
 16  4  1  0  0  0  0
 17 16  1  0  0  0  0
 19 18  1  0  0  0  0
 19 20  1  0  0  0  0
 21 20  1  0  0  0  0
 22 23  1  0  0  0  0
 23 21  1  0  0  0  0
M  END
>  <minimizedAffinity>
41.9369354

$$$$
