
 OpenBabel09122222393D

 23 24  0  0  0  0  0  0  0  0999 V2000
    0.9090    2.6490   -5.5040 C   0  0  0  0  0  0  0  0  0  0  0  0
    0.1850    3.5420   -6.0860 N   0  0  0  0  0  0  0  0  0  0  0  0
    0.7500    4.2120   -7.1530 C   0  0  0  0  0  0  0  0  0  0  0  0
    2.0040    3.9990   -7.5960 C   0  0  0  0  0  0  0  0  0  0  0  0
    2.8010    2.9640   -6.9070 C   0  0  0  0  0  0  0  0  0  0  0  0
    3.9500    2.6870   -7.2280 O   0  0  0  0  0  0  0  0  0  0  0  0
    2.1720    2.3290   -5.8770 N   0  0  0  0  0  0  0  0  0  0  0  0
    2.6730    1.6090   -5.3790 H   0  0  0  0  0  0  0  0  0  0  0  0
   -0.1140    5.2310   -7.7880 C   0  0  0  0  0  0  0  0  0  0  0  0
   -1.4210    4.9240   -8.1890 C   0  0  0  0  0  3  0  0  0  0  0  0
   -2.2270    5.9000   -8.7830 C   0  0  0  0  0  3  0  0  0  0  0  0
   -1.7300    7.1890   -8.9680 C   0  0  0  0  0  0  0  0  0  0  0  0
   -2.8200    8.5090   -9.7670 Br  0  0  0  0  0  0  0  0  0  0  0  0
   -0.4370    7.5120   -8.5620 C   0  0  0  0  0  3  0  0  0  0  0  0
    0.3680    6.5360   -7.9690 C   0  0  0  0  0  3  0  0  0  0  0  0
    2.6510    4.7660   -8.7370 C   0  0  0  0  0  2  0  0  0  0  0  0
    3.1870    5.4030   -9.6850 N   0  0  0  0  0  1  0  0  0  0  0  0
    0.3520    1.7090   -4.1620 S   0  0  0  0  0  0  0  0  0  0  0  0
   -0.0660    3.0200   -2.9730 C   0  0  0  0  0  2  0  0  0  0  0  0
   -1.4060    2.7740   -2.2740 C   0  0  0  0  0  2  0  0  0  0  0  0
   -2.1660    4.0180   -1.8000 C   0  0  0  0  0  2  0  0  0  0  0  0
   -3.6210    3.3830    0.2020 C   0  0  0  0  0  1  0  0  0  0  0  0
   -2.3870    4.1250   -0.2900 C   0  0  0  0  0  2  0  0  0  0  0  0
  1 18  1  0  0  0  0
  2  1  2  0  0  0  0
  3  2  1  0  0  0  0
  4  3  2  0  0  0  0
  4  5  1  0  0  0  0
  5  7  1  0  0  0  0
  6  5  2  0  0  0  0
  7  1  1  0  0  0  0
  7  8  1  0  0  0  0
  9  3  1  0  0  0  0
 10  9  2  0  0  0  0
 11 10  1  0  0  0  0
 12 11  2  0  0  0  0
 12 14  1  0  0  0  0
 13 12  1  0  0  0  0
 14 15  2  0  0  0  0
 15  9  1  0  0  0  0
 16  4  1  0  0  0  0
 17 16  1  0  0  0  0
 18 19  1  0  0  0  0
 19 20  1  0  0  0  0
 20 21  1  0  0  0  0
 21 23  1  0  0  0  0
 23 22  1  0  0  0  0
M  END
>  <minimizedAffinity>
39.8834

$$$$
