
 OpenBabel09122222393D

 23 24  0  0  0  0  0  0  0  0999 V2000
    0.9850    2.7990   -5.4650 C   0  0  0  0  0  0  0  0  0  0  0  0
    0.2670    3.6930   -6.0530 N   0  0  0  0  0  0  0  0  0  0  0  0
    0.8080    4.3010   -7.1680 C   0  0  0  0  0  0  0  0  0  0  0  0
    2.0360    4.0290   -7.6510 C   0  0  0  0  0  0  0  0  0  0  0  0
    2.8270    2.9940   -6.9540 C   0  0  0  0  0  0  0  0  0  0  0  0
    3.9520    2.6670   -7.3090 O   0  0  0  0  0  0  0  0  0  0  0  0
    2.2210    2.4230   -5.8740 N   0  0  0  0  0  0  0  0  0  0  0  0
    2.7180    1.7060   -5.3680 H   0  0  0  0  0  0  0  0  0  0  0  0
   -0.0480    5.3230   -7.8080 C   0  0  0  0  0  0  0  0  0  0  0  0
   -1.3680    5.0330   -8.1780 C   0  0  0  0  0  3  0  0  0  0  0  0
   -2.1660    6.0120   -8.7780 C   0  0  0  0  0  3  0  0  0  0  0  0
   -1.6480    7.2860   -9.0000 C   0  0  0  0  0  0  0  0  0  0  0  0
   -2.7280    8.6110   -9.8070 Br  0  0  0  0  0  0  0  0  0  0  0  0
   -0.3420    7.5930   -8.6250 C   0  0  0  0  0  3  0  0  0  0  0  0
    0.4560    6.6140   -8.0270 C   0  0  0  0  0  3  0  0  0  0  0  0
    2.6590    4.7280   -8.8470 C   0  0  0  0  0  2  0  0  0  0  0  0
    3.1770    5.3080   -9.8410 N   0  0  0  0  0  1  0  0  0  0  0  0
    0.4540    1.9320   -4.0640 S   0  0  0  0  0  0  0  0  0  0  0  0
   -1.1040    1.2150   -4.6730 C   0  0  0  0  0  2  0  0  0  0  0  0
   -1.8890    0.4960   -3.5730 C   0  0  0  0  0  2  0  0  0  0  0  0
   -2.5300   -0.8420   -3.9570 C   0  0  0  0  0  2  0  0  0  0  0  0
   -4.5700   -2.0990   -4.8430 C   0  0  0  0  0  1  0  0  0  0  0  0
   -4.0220   -0.7910   -4.2940 C   0  0  0  0  0  2  0  0  0  0  0  0
  1 18  1  0  0  0  0
  2  1  2  0  0  0  0
  3  2  1  0  0  0  0
  4  3  2  0  0  0  0
  4  5  1  0  0  0  0
  5  7  1  0  0  0  0
  6  5  2  0  0  0  0
  7  1  1  0  0  0  0
  7  8  1  0  0  0  0
  9  3  1  0  0  0  0
 10  9  2  0  0  0  0
 11 10  1  0  0  0  0
 12 11  2  0  0  0  0
 12 14  1  0  0  0  0
 13 12  1  0  0  0  0
 14 15  2  0  0  0  0
 15  9  1  0  0  0  0
 16  4  1  0  0  0  0
 17 16  1  0  0  0  0
 19 18  1  0  0  0  0
 19 20  1  0  0  0  0
 21 20  1  0  0  0  0
 22 23  1  0  0  0  0
 23 21  1  0  0  0  0
M  END
>  <minimizedAffinity>
41.9369354

$$$$
