
 OpenBabel09122222393D

 32 33  0  0  0  0  0  0  0  0999 V2000
   10.2980    0.8870   -0.2760 C   0  0  0  0  0  0  0  0  0  0  0  0
   10.7880    1.8910   -1.1040 C   0  0  0  0  0  3  0  0  0  0  0  0
   11.0160    3.1650   -0.5950 C   0  0  0  0  0  3  0  0  0  0  0  0
   10.7640    3.4830    0.7530 C   0  0  0  0  0  0  0  0  0  0  0  0
   11.0440    4.7680    1.2970 C   0  0  0  0  0  0  0  0  0  0  0  0
   10.7390    5.0750    2.6290 C   0  0  0  0  0  0  0  0  0  0  0  0
   11.0710    6.7770    3.4070 Br  0  0  0  0  0  0  0  0  0  0  0  0
   10.1840    4.0990    3.4440 C   0  0  0  0  0  3  0  0  0  0  0  0
    9.9300    2.8240    2.9330 C   0  0  0  0  0  3  0  0  0  0  0  0
   10.2120    2.4730    1.5900 C   0  0  0  0  0  0  0  0  0  0  0  0
    9.9710    1.1620    1.0610 C   0  0  0  0  0  0  0  0  0  0  0  0
   11.6090    5.8290    0.4330 C   0  0  0  0  0  0  0  0  0  0  0  0
   12.6910    5.5470   -0.0800 O   0  0  0  0  0  0  0  0  0  0  0  0
   10.8640    6.9880    0.2270 N   0  0  0  0  0  0  0  0  0  0  0  0
   11.4700    8.0910   -0.3700 C   0  0  0  0  0  0  0  0  0  0  0  0
   12.6270    8.1560   -0.7770 O   0  0  0  0  0  0  0  0  0  0  0  0
    9.4960    7.1520    0.7780 C   0  0  0  0  0  2  0  0  0  0  0  0
    8.4450    7.6750   -0.2230 C   0  0  0  0  0  0  0  0  0  0  0  0
    8.3450    6.9850   -1.2800 O   0  0  0  0  0  0  0  0  0  0  0  0
    7.7930    8.6990    0.1240 O   0  0  0  0  0  1  0  0  0  0  0  0
   10.6080    9.1440   -0.5210 O   0  0  0  0  0  0  0  0  0  0  0  0
   10.9600   10.3270    0.2030 C   0  0  0  0  0  2  0  0  0  0  0  0
   10.3120   11.5630   -0.4590 C   0  0  0  0  0  0  0  0  0  0  0  0
   11.3770   12.6370   -0.7370 C   0  0  0  0  0  1  0  0  0  0  0  0
    9.6630   11.1370   -1.7850 C   0  0  0  0  0  1  0  0  0  0  0  0
    9.2350   12.1590    0.4630 C   0  0  0  0  0  1  0  0  0  0  0  0
    9.3890    0.0830    1.9440 C   0  0  0  0  0  0  0  0  0  0  0  0
    9.7870   -1.1680    1.5560 F   0  0  0  0  0  0  0  0  0  0  0  0
    9.6890    0.1430    3.2730 F   0  0  0  0  0  0  0  0  0  0  0  0
    8.0220    0.0480    1.9010 F   0  0  0  0  0  0  0  0  0  0  0  0
   10.8850   -0.6530   -1.9210 C   0  0  0  0  0  1  0  0  0  0  0  0
   10.0750   -0.3690   -0.7780 O   0  0  0  0  0  0  0  0  0  0  0  0
  1 11  1  0  0  0  0
  2  3  1  0  0  0  0
  2  1  2  0  0  0  0
  3  4  2  0  0  0  0
  4  5  1  0  0  0  0
  4 10  1  0  0  0  0
  5  6  2  0  0  0  0
  6  7  1  0  0  0  0
  6  8  1  0  0  0  0
  9  8  2  0  0  0  0
 10  9  1  0  0  0  0
 11 10  2  0  0  0  0
 11 27  1  0  0  0  0
 12  5  1  0  0  0  0
 13 12  2  0  0  0  0
 14 12  1  0  0  0  0
 14 17  1  0  0  0  0
 15 14  1  0  0  0  0
 16 15  2  0  0  0  0
 18 20  1  0  0  0  0
 18 17  1  0  0  0  0
 19 18  2  0  0  0  0
 21 15  1  0  0  0  0
 21 22  1  0  0  0  0
 23 22  1  0  0  0  0
 23 26  1  0  0  0  0
 24 23  1  0  0  0  0
 25 23  1  0  0  0  0
 27 29  1  0  0  0  0
 28 27  1  0  0  0  0
 30 27  1  0  0  0  0
 31 32  1  0  0  0  0
 32  1  1  0  0  0  0
M  END
>  <minimizedAffinity>
-3.35348296

$$$$
