
 OpenBabel09122222393D

 32 33  0  0  0  0  0  0  0  0999 V2000
    8.3660   12.6120   -2.0030 C   0  0  0  0  0  0  0  0  0  0  0  0
    8.7990   12.4740   -0.6890 C   0  0  0  0  0  3  0  0  0  0  0  0
    9.6660   11.4430   -0.3450 C   0  0  0  0  0  3  0  0  0  0  0  0
   10.1300   10.5140   -1.2950 C   0  0  0  0  0  0  0  0  0  0  0  0
   11.0590    9.4880   -0.9640 C   0  0  0  0  0  0  0  0  0  0  0  0
   11.4690    8.5450   -1.9150 C   0  0  0  0  0  0  0  0  0  0  0  0
   12.6910    7.1410   -1.5300 Br  0  0  0  0  0  0  0  0  0  0  0  0
   10.9860    8.6320   -3.2140 C   0  0  0  0  0  3  0  0  0  0  0  0
   10.0960    9.6510   -3.5610 C   0  0  0  0  0  3  0  0  0  0  0  0
    9.6470   10.6180   -2.6300 C   0  0  0  0  0  0  0  0  0  0  0  0
    8.7480   11.6790   -2.9810 C   0  0  0  0  0  0  0  0  0  0  0  0
   11.5610    9.3640    0.4230 C   0  0  0  0  0  0  0  0  0  0  0  0
   12.2910   10.2850    0.7860 O   0  0  0  0  0  0  0  0  0  0  0  0
   11.1260    8.2890    1.1950 N   0  0  0  0  0  0  0  0  0  0  0  0
   11.7660    8.0140    2.4020 C   0  0  0  0  0  0  0  0  0  0  0  0
   12.6920    8.6500    2.8980 O   0  0  0  0  0  0  0  0  0  0  0  0
   10.1190    7.3190    0.6980 C   0  0  0  0  0  2  0  0  0  0  0  0
    8.7540    7.9300    0.3170 C   0  0  0  0  0  0  0  0  0  0  0  0
    8.3080    8.7680    1.1530 O   0  0  0  0  0  1  0  0  0  0  0  0
    8.2530    7.5530   -0.7800 O   0  0  0  0  0  0  0  0  0  0  0  0
   11.2160    6.9420    3.0530 O   0  0  0  0  0  0  0  0  0  0  0  0
   12.1570    6.0040    3.5830 C   0  0  0  0  0  2  0  0  0  0  0  0
   11.9180    4.6090    2.9630 C   0  0  0  0  0  0  0  0  0  0  0  0
   10.4110    4.3100    2.8920 C   0  0  0  0  0  1  0  0  0  0  0  0
   12.5070    4.5860    1.5440 C   0  0  0  0  0  1  0  0  0  0  0  0
   12.6000    3.5240    3.8130 C   0  0  0  0  0  1  0  0  0  0  0  0
    8.2340   11.7990   -4.3960 C   0  0  0  0  0  0  0  0  0  0  0  0
    6.9180   11.4310   -4.4980 F   0  0  0  0  0  0  0  0  0  0  0  0
    8.2920   13.0330   -4.9730 F   0  0  0  0  0  0  0  0  0  0  0  0
    8.8970   10.9790   -5.2680 F   0  0  0  0  0  0  0  0  0  0  0  0
    7.1390   14.4280   -1.2180 C   0  0  0  0  0  1  0  0  0  0  0  0
    7.5130   13.6290   -2.3430 O   0  0  0  0  0  0  0  0  0  0  0  0
  1  2  1  0  0  0  0
  2  3  2  0  0  0  0
  4  5  1  0  0  0  0
  4  3  1  0  0  0  0
  5 12  1  0  0  0  0
  6  7  1  0  0  0  0
  6  5  2  0  0  0  0
  8  6  1  0  0  0  0
  9  8  2  0  0  0  0
  9 10  1  0  0  0  0
 10  4  2  0  0  0  0
 11 10  1  0  0  0  0
 11  1  2  0  0  0  0
 12 13  2  0  0  0  0
 12 14  1  0  0  0  0
 14 15  1  0  0  0  0
 15 16  2  0  0  0  0
 15 21  1  0  0  0  0
 17 14  1  0  0  0  0
 18 17  1  0  0  0  0
 18 19  1  0  0  0  0
 20 18  2  0  0  0  0
 21 22  1  0  0  0  0
 23 22  1  0  0  0  0
 23 26  1  0  0  0  0
 24 23  1  0  0  0  0
 25 23  1  0  0  0  0
 27 11  1  0  0  0  0
 28 27  1  0  0  0  0
 29 27  1  0  0  0  0
 30 27  1  0  0  0  0
 32  1  1  0  0  0  0
 32 31  1  0  0  0  0
M  END
>  <minimizedAffinity>
-3.79461503

$$$$
