
 OpenBabel09122222393D

 32 33  0  0  0  0  0  0  0  0999 V2000
   10.6060    3.8520    0.5300 C   0  0  0  0  0  0  0  0  0  0  0  0
   10.5850    4.8480   -0.4390 C   0  0  0  0  0  3  0  0  0  0  0  0
   10.8480    6.1670   -0.0880 C   0  0  0  0  0  3  0  0  0  0  0  0
   11.1400    6.5400    1.2370 C   0  0  0  0  0  0  0  0  0  0  0  0
   11.4630    7.8780    1.5970 C   0  0  0  0  0  0  0  0  0  0  0  0
   11.7020    8.2340    2.9310 C   0  0  0  0  0  0  0  0  0  0  0  0
   12.1200   10.0060    3.4770 Br  0  0  0  0  0  0  0  0  0  0  0  0
   11.6560    7.2580    3.9160 C   0  0  0  0  0  3  0  0  0  0  0  0
   11.3690    5.9340    3.5740 C   0  0  0  0  0  3  0  0  0  0  0  0
   11.1100    5.5320    2.2410 C   0  0  0  0  0  0  0  0  0  0  0  0
   10.8310    4.1730    1.8780 C   0  0  0  0  0  0  0  0  0  0  0  0
   11.4880    8.9370    0.5630 C   0  0  0  0  0  0  0  0  0  0  0  0
   12.6020    9.1660    0.0930 O   0  0  0  0  0  0  0  0  0  0  0  0
   10.2820    9.5170    0.1740 N   0  0  0  0  0  0  0  0  0  0  0  0
   10.3020   10.6720   -0.6050 C   0  0  0  0  0  0  0  0  0  0  0  0
   11.3000   11.2490   -1.0280 O   0  0  0  0  0  0  0  0  0  0  0  0
    8.9780    9.0500    0.7040 C   0  0  0  0  0  2  0  0  0  0  0  0
    8.6340    9.5410    2.1260 C   0  0  0  0  0  0  0  0  0  0  0  0
    8.2280    8.6310    2.9060 O   0  0  0  0  0  1  0  0  0  0  0  0
    8.8160   10.7690    2.3590 O   0  0  0  0  0  0  0  0  0  0  0  0
    9.0430   11.1110   -0.9200 O   0  0  0  0  0  0  0  0  0  0  0  0
    8.7870   12.4860   -0.6220 C   0  0  0  0  0  2  0  0  0  0  0  0
    8.4770   13.2600   -1.9230 C   0  0  0  0  0  0  0  0  0  0  0  0
    9.6430   14.1980   -2.2750 C   0  0  0  0  0  1  0  0  0  0  0  0
    8.2750   12.2520   -3.0660 C   0  0  0  0  0  1  0  0  0  0  0  0
    7.1980   14.0970   -1.7540 C   0  0  0  0  0  1  0  0  0  0  0  0
   10.8020    3.0960    2.9380 C   0  0  0  0  0  0  0  0  0  0  0  0
   10.4490    1.8780    2.4220 F   0  0  0  0  0  0  0  0  0  0  0  0
   11.9620    2.8610    3.6140 F   0  0  0  0  0  0  0  0  0  0  0  0
    9.8780    3.3450    3.9160 F   0  0  0  0  0  0  0  0  0  0  0  0
   11.2540    2.0580   -0.8060 C   0  0  0  0  0  1  0  0  0  0  0  0
   10.3480    2.5500    0.1850 O   0  0  0  0  0  0  0  0  0  0  0  0
  1 11  1  0  0  0  0
  2  3  1  0  0  0  0
  2  1  2  0  0  0  0
  3  4  2  0  0  0  0
  4  5  1  0  0  0  0
  4 10  1  0  0  0  0
  5  6  2  0  0  0  0
  6  7  1  0  0  0  0
  6  8  1  0  0  0  0
  9  8  2  0  0  0  0
 10  9  1  0  0  0  0
 11 10  2  0  0  0  0
 11 27  1  0  0  0  0
 12  5  1  0  0  0  0
 13 12  2  0  0  0  0
 14 12  1  0  0  0  0
 14 17  1  0  0  0  0
 15 14  1  0  0  0  0
 16 15  2  0  0  0  0
 17 18  1  0  0  0  0
 18 20  2  0  0  0  0
 18 19  1  0  0  0  0
 21 22  1  0  0  0  0
 21 15  1  0  0  0  0
 23 26  1  0  0  0  0
 23 22  1  0  0  0  0
 24 23  1  0  0  0  0
 25 23  1  0  0  0  0
 27 29  1  0  0  0  0
 27 30  1  0  0  0  0
 28 27  1  0  0  0  0
 31 32  1  0  0  0  0
 32  1  1  0  0  0  0
M  END
>  <minimizedAffinity>
-5.72150421

$$$$
