
 OpenBabel09122222393D

 32 33  0  0  0  0  0  0  0  0999 V2000
   11.0340   11.3160   -3.1380 C   0  0  0  0  0  0  0  0  0  0  0  0
   11.8080   10.3800   -2.4620 C   0  0  0  0  0  3  0  0  0  0  0  0
   11.6030   10.1560   -1.1040 C   0  0  0  0  0  3  0  0  0  0  0  0
   10.6240   10.8560   -0.3750 C   0  0  0  0  0  0  0  0  0  0  0  0
   10.3710   10.5970    1.0010 C   0  0  0  0  0  0  0  0  0  0  0  0
    9.4250   11.3400    1.7180 C   0  0  0  0  0  0  0  0  0  0  0  0
    9.0550   11.0540    3.5610 Br  0  0  0  0  0  0  0  0  0  0  0  0
    8.6960   12.3260    1.0680 C   0  0  0  0  0  3  0  0  0  0  0  0
    8.9130   12.5720   -0.2900 C   0  0  0  0  0  3  0  0  0  0  0  0
    9.8660   11.8530   -1.0510 C   0  0  0  0  0  0  0  0  0  0  0  0
   10.0840   12.0870   -2.4490 C   0  0  0  0  0  0  0  0  0  0  0  0
   11.1600    9.5690    1.7170 C   0  0  0  0  0  0  0  0  0  0  0  0
   12.1330   10.0070    2.3300 O   0  0  0  0  0  0  0  0  0  0  0  0
   10.7130    8.2490    1.6930 N   0  0  0  0  0  0  0  0  0  0  0  0
   11.5570    7.2360    2.1420 C   0  0  0  0  0  0  0  0  0  0  0  0
   12.6880    7.3780    2.5990 O   0  0  0  0  0  0  0  0  0  0  0  0
    9.4360    7.8630    1.0450 C   0  0  0  0  0  2  0  0  0  0  0  0
    9.5210    7.6150   -0.4760 C   0  0  0  0  0  0  0  0  0  0  0  0
   10.6090    7.0910   -0.8570 O   0  0  0  0  0  1  0  0  0  0  0  0
    8.5070    7.9310   -1.1580 O   0  0  0  0  0  0  0  0  0  0  0  0
   10.9720    6.0000    2.0730 O   0  0  0  0  0  0  0  0  0  0  0  0
   11.8380    4.9390    1.6580 C   0  0  0  0  0  2  0  0  0  0  0  0
   11.0010    3.7250    1.1970 C   0  0  0  0  0  0  0  0  0  0  0  0
   11.7840    2.9030    0.1600 C   0  0  0  0  0  1  0  0  0  0  0  0
   10.6920    2.8400    2.4150 C   0  0  0  0  0  1  0  0  0  0  0  0
    9.6810    4.1960    0.5650 C   0  0  0  0  0  1  0  0  0  0  0  0
    9.2800   13.1400   -3.1750 C   0  0  0  0  0  0  0  0  0  0  0  0
    8.4310   12.5930   -4.0990 F   0  0  0  0  0  0  0  0  0  0  0  0
    8.4870   13.9480   -2.4150 F   0  0  0  0  0  0  0  0  0  0  0  0
   10.0670   14.0040   -3.8880 F   0  0  0  0  0  0  0  0  0  0  0  0
   12.6060   11.7850   -4.7890 C   0  0  0  0  0  1  0  0  0  0  0  0
   11.2340   11.5360   -4.4760 O   0  0  0  0  0  0  0  0  0  0  0  0
  1  2  2  0  0  0  0
  1 11  1  0  0  0  0
  2  3  1  0  0  0  0
  3  4  2  0  0  0  0
  4  5  1  0  0  0  0
  5 12  1  0  0  0  0
  5  6  2  0  0  0  0
  6  7  1  0  0  0  0
  8  6  1  0  0  0  0
  9  8  2  0  0  0  0
 10  4  1  0  0  0  0
 10  9  1  0  0  0  0
 11 10  2  0  0  0  0
 12 13  2  0  0  0  0
 14 12  1  0  0  0  0
 14 15  1  0  0  0  0
 15 16  2  0  0  0  0
 17 14  1  0  0  0  0
 18 17  1  0  0  0  0
 19 18  1  0  0  0  0
 20 18  2  0  0  0  0
 21 15  1  0  0  0  0
 22 21  1  0  0  0  0
 23 22  1  0  0  0  0
 23 25  1  0  0  0  0
 24 23  1  0  0  0  0
 26 23  1  0  0  0  0
 27 11  1  0  0  0  0
 27 29  1  0  0  0  0
 28 27  1  0  0  0  0
 30 27  1  0  0  0  0
 31 32  1  0  0  0  0
 32  1  1  0  0  0  0
M  END
>  <minimizedAffinity>
-4.78397083

$$$$
