
 OpenBabel09122222393D

 32 33  0  0  0  0  0  0  0  0999 V2000
    8.9480   10.9750   -3.9690 C   0  0  0  0  0  0  0  0  0  0  0  0
    9.5160    9.7170   -3.8060 C   0  0  0  0  0  3  0  0  0  0  0  0
   10.1830    9.4000   -2.6280 C   0  0  0  0  0  3  0  0  0  0  0  0
   10.3090   10.3240   -1.5740 C   0  0  0  0  0  0  0  0  0  0  0  0
   10.9430    9.9920   -0.3440 C   0  0  0  0  0  0  0  0  0  0  0  0
   11.0990   10.9430    0.6730 C   0  0  0  0  0  0  0  0  0  0  0  0
   11.9530   10.5670    2.3290 Br  0  0  0  0  0  0  0  0  0  0  0  0
   10.5970   12.2250    0.4910 C   0  0  0  0  0  3  0  0  0  0  0  0
    9.9470   12.5570   -0.7000 C   0  0  0  0  0  3  0  0  0  0  0  0
    9.7760   11.6310   -1.7580 C   0  0  0  0  0  0  0  0  0  0  0  0
    9.0940   11.9570   -2.9760 C   0  0  0  0  0  0  0  0  0  0  0  0
   11.5100    8.6390   -0.1450 C   0  0  0  0  0  0  0  0  0  0  0  0
   12.6910    8.5280   -0.4700 O   0  0  0  0  0  0  0  0  0  0  0  0
   10.7070    7.6590    0.4340 N   0  0  0  0  0  0  0  0  0  0  0  0
   11.1250    6.3300    0.4040 C   0  0  0  0  0  0  0  0  0  0  0  0
   12.1760    5.9070   -0.0710 O   0  0  0  0  0  0  0  0  0  0  0  0
    9.3400    7.9530    0.9280 C   0  0  0  0  0  2  0  0  0  0  0  0
    9.2330    8.2090    2.4460 C   0  0  0  0  0  0  0  0  0  0  0  0
    8.1980    8.8490    2.7940 O   0  0  0  0  0  0  0  0  0  0  0  0
   10.1590    7.7390    3.1650 O   0  0  0  0  0  1  0  0  0  0  0  0
   10.2410    5.4900    1.0270 O   0  0  0  0  0  0  0  0  0  0  0  0
    9.8450    4.3480    0.2610 C   0  0  0  0  0  2  0  0  0  0  0  0
   10.4570    3.0660    0.8690 C   0  0  0  0  0  0  0  0  0  0  0  0
    9.3420    2.1100    1.3260 C   0  0  0  0  0  1  0  0  0  0  0  0
   11.3170    2.3700   -0.1970 C   0  0  0  0  0  1  0  0  0  0  0  0
   11.3370    3.4180    2.0800 C   0  0  0  0  0  1  0  0  0  0  0  0
    8.5220   13.3410   -3.1770 C   0  0  0  0  0  0  0  0  0  0  0  0
    9.3880   14.3190   -2.7660 F   0  0  0  0  0  0  0  0  0  0  0  0
    8.1850   13.6920   -4.4510 F   0  0  0  0  0  0  0  0  0  0  0  0
    7.3830   13.5500   -2.4490 F   0  0  0  0  0  0  0  0  0  0  0  0
    7.6180   10.1590   -5.6970 C   0  0  0  0  0  1  0  0  0  0  0  0
    8.2890   11.2870   -5.1300 O   0  0  0  0  0  0  0  0  0  0  0  0
  1  2  2  0  0  0  0
  1 11  1  0  0  0  0
  2  3  1  0  0  0  0
  3  4  2  0  0  0  0
  4  5  1  0  0  0  0
  5 12  1  0  0  0  0
  5  6  2  0  0  0  0
  6  7  1  0  0  0  0
  8  6  1  0  0  0  0
  9  8  2  0  0  0  0
 10  4  1  0  0  0  0
 10  9  1  0  0  0  0
 11 10  2  0  0  0  0
 12 14  1  0  0  0  0
 13 12  2  0  0  0  0
 14 17  1  0  0  0  0
 15 14  1  0  0  0  0
 15 21  1  0  0  0  0
 16 15  2  0  0  0  0
 17 18  1  0  0  0  0
 18 19  2  0  0  0  0
 18 20  1  0  0  0  0
 22 23  1  0  0  0  0
 22 21  1  0  0  0  0
 23 24  1  0  0  0  0
 23 26  1  0  0  0  0
 25 23  1  0  0  0  0
 27 11  1  0  0  0  0
 27 28  1  0  0  0  0
 27 30  1  0  0  0  0
 29 27  1  0  0  0  0
 31 32  1  0  0  0  0
 32  1  1  0  0  0  0
M  END
>  <minimizedAffinity>
-6.31053925

$$$$
