
 OpenBabel09122220513D

 32 33  0  0  0  0  0  0  0  0999 V2000
    8.9480   10.9750   -3.9690 C   0  0  0  0  0  0  0  0  0  0  0  0
    9.5160    9.7170   -3.8060 C   0  0  0  0  0  3  0  0  0  0  0  0
   10.1830    9.4000   -2.6280 C   0  0  0  0  0  3  0  0  0  0  0  0
   10.3090   10.3240   -1.5740 C   0  0  0  0  0  0  0  0  0  0  0  0
   10.9430    9.9920   -0.3440 C   0  0  0  0  0  0  0  0  0  0  0  0
   11.0990   10.9430    0.6730 C   0  0  0  0  0  0  0  0  0  0  0  0
   11.9530   10.5670    2.3290 Br  0  0  0  0  0  0  0  0  0  0  0  0
   10.5970   12.2250    0.4910 C   0  0  0  0  0  3  0  0  0  0  0  0
    9.9470   12.5570   -0.7000 C   0  0  0  0  0  3  0  0  0  0  0  0
    9.7760   11.6310   -1.7580 C   0  0  0  0  0  0  0  0  0  0  0  0
    9.0940   11.9570   -2.9760 C   0  0  0  0  0  0  0  0  0  0  0  0
   11.5100    8.6390   -0.1450 C   0  0  0  0  0  0  0  0  0  0  0  0
   12.6910    8.5280   -0.4700 O   0  0  0  0  0  0  0  0  0  0  0  0
   10.7070    7.6590    0.4340 N   0  0  0  0  0  0  0  0  0  0  0  0
   11.1250    6.3300    0.4040 C   0  0  0  0  0  0  0  0  0  0  0  0
   12.1760    5.9070   -0.0710 O   0  0  0  0  0  0  0  0  0  0  0  0
    9.3400    7.9530    0.9280 C   0  0  0  0  0  2  0  0  0  0  0  0
    9.2330    8.2090    2.4460 C   0  0  0  0  0  0  0  0  0  0  0  0
    8.1980    8.8490    2.7940 O   0  0  0  0  0  0  0  0  0  0  0  0
   10.1590    7.7390    3.1650 O   0  0  0  0  0  1  0  0  0  0  0  0
   10.2410    5.4900    1.0270 O   0  0  0  0  0  0  0  0  0  0  0  0
    9.8450    4.3480    0.2610 C   0  0  0  0  0  2  0  0  0  0  0  0
   10.4570    3.0660    0.8690 C   0  0  0  0  0  0  0  0  0  0  0  0
    9.3420    2.1100    1.3260 C   0  0  0  0  0  1  0  0  0  0  0  0
   11.3170    2.3700   -0.1970 C   0  0  0  0  0  1  0  0  0  0  0  0
   11.3370    3.4180    2.0800 C   0  0  0  0  0  1  0  0  0  0  0  0
    8.5220   13.3410   -3.1770 C   0  0  0  0  0  0  0  0  0  0  0  0
    9.3880   14.3190   -2.7660 F   0  0  0  0  0  0  0  0  0  0  0  0
    8.1850   13.6920   -4.4510 F   0  0  0  0  0  0  0  0  0  0  0  0
    7.3830   13.5500   -2.4490 F   0  0  0  0  0  0  0  0  0  0  0  0
    7.6180   10.1590   -5.6970 C   0  0  0  0  0  1  0  0  0  0  0  0
    8.2890   11.2870   -5.1300 O   0  0  0  0  0  0  0  0  0  0  0  0
  1  2  2  0  0  0  0
  1 11  1  0  0  0  0
  2  3  1  0  0  0  0
  3  4  2  0  0  0  0
  4  5  1  0  0  0  0
  5 12  1  0  0  0  0
  5  6  2  0  0  0  0
  6  7  1  0  0  0  0
  8  6  1  0  0  0  0
  9  8  2  0  0  0  0
 10  4  1  0  0  0  0
 10  9  1  0  0  0  0
 11 10  2  0  0  0  0
 12 14  1  0  0  0  0
 13 12  2  0  0  0  0
 14 17  1  0  0  0  0
 15 14  1  0  0  0  0
 15 21  1  0  0  0  0
 16 15  2  0  0  0  0
 17 18  1  0  0  0  0
 18 19  2  0  0  0  0
 18 20  1  0  0  0  0
 22 23  1  0  0  0  0
 22 21  1  0  0  0  0
 23 24  1  0  0  0  0
 23 26  1  0  0  0  0
 25 23  1  0  0  0  0
 27 11  1  0  0  0  0
 27 28  1  0  0  0  0
 27 30  1  0  0  0  0
 29 27  1  0  0  0  0
 31 32  1  0  0  0  0
 32  1  1  0  0  0  0
M  END
>  <minimizedAffinity>
-6.31053925

$$$$

 OpenBabel09122220513D

 32 33  0  0  0  0  0  0  0  0999 V2000
   10.6060    3.8520    0.5300 C   0  0  0  0  0  0  0  0  0  0  0  0
   10.5850    4.8480   -0.4390 C   0  0  0  0  0  3  0  0  0  0  0  0
   10.8480    6.1670   -0.0880 C   0  0  0  0  0  3  0  0  0  0  0  0
   11.1400    6.5400    1.2370 C   0  0  0  0  0  0  0  0  0  0  0  0
   11.4630    7.8780    1.5970 C   0  0  0  0  0  0  0  0  0  0  0  0
   11.7020    8.2340    2.9310 C   0  0  0  0  0  0  0  0  0  0  0  0
   12.1200   10.0060    3.4770 Br  0  0  0  0  0  0  0  0  0  0  0  0
   11.6560    7.2580    3.9160 C   0  0  0  0  0  3  0  0  0  0  0  0
   11.3690    5.9340    3.5740 C   0  0  0  0  0  3  0  0  0  0  0  0
   11.1100    5.5320    2.2410 C   0  0  0  0  0  0  0  0  0  0  0  0
   10.8310    4.1730    1.8780 C   0  0  0  0  0  0  0  0  0  0  0  0
   11.4880    8.9370    0.5630 C   0  0  0  0  0  0  0  0  0  0  0  0
   12.6020    9.1660    0.0930 O   0  0  0  0  0  0  0  0  0  0  0  0
   10.2820    9.5170    0.1740 N   0  0  0  0  0  0  0  0  0  0  0  0
   10.3020   10.6720   -0.6050 C   0  0  0  0  0  0  0  0  0  0  0  0
   11.3000   11.2490   -1.0280 O   0  0  0  0  0  0  0  0  0  0  0  0
    8.9780    9.0500    0.7040 C   0  0  0  0  0  2  0  0  0  0  0  0
    8.6340    9.5410    2.1260 C   0  0  0  0  0  0  0  0  0  0  0  0
    8.2280    8.6310    2.9060 O   0  0  0  0  0  1  0  0  0  0  0  0
    8.8160   10.7690    2.3590 O   0  0  0  0  0  0  0  0  0  0  0  0
    9.0430   11.1110   -0.9200 O   0  0  0  0  0  0  0  0  0  0  0  0
    8.7870   12.4860   -0.6220 C   0  0  0  0  0  2  0  0  0  0  0  0
    8.4770   13.2600   -1.9230 C   0  0  0  0  0  0  0  0  0  0  0  0
    9.6430   14.1980   -2.2750 C   0  0  0  0  0  1  0  0  0  0  0  0
    8.2750   12.2520   -3.0660 C   0  0  0  0  0  1  0  0  0  0  0  0
    7.1980   14.0970   -1.7540 C   0  0  0  0  0  1  0  0  0  0  0  0
   10.8020    3.0960    2.9380 C   0  0  0  0  0  0  0  0  0  0  0  0
   10.4490    1.8780    2.4220 F   0  0  0  0  0  0  0  0  0  0  0  0
   11.9620    2.8610    3.6140 F   0  0  0  0  0  0  0  0  0  0  0  0
    9.8780    3.3450    3.9160 F   0  0  0  0  0  0  0  0  0  0  0  0
   11.2540    2.0580   -0.8060 C   0  0  0  0  0  1  0  0  0  0  0  0
   10.3480    2.5500    0.1850 O   0  0  0  0  0  0  0  0  0  0  0  0
  1 11  1  0  0  0  0
  2  3  1  0  0  0  0
  2  1  2  0  0  0  0
  3  4  2  0  0  0  0
  4  5  1  0  0  0  0
  4 10  1  0  0  0  0
  5  6  2  0  0  0  0
  6  7  1  0  0  0  0
  6  8  1  0  0  0  0
  9  8  2  0  0  0  0
 10  9  1  0  0  0  0
 11 10  2  0  0  0  0
 11 27  1  0  0  0  0
 12  5  1  0  0  0  0
 13 12  2  0  0  0  0
 14 12  1  0  0  0  0
 14 17  1  0  0  0  0
 15 14  1  0  0  0  0
 16 15  2  0  0  0  0
 17 18  1  0  0  0  0
 18 20  2  0  0  0  0
 18 19  1  0  0  0  0
 21 22  1  0  0  0  0
 21 15  1  0  0  0  0
 23 26  1  0  0  0  0
 23 22  1  0  0  0  0
 24 23  1  0  0  0  0
 25 23  1  0  0  0  0
 27 29  1  0  0  0  0
 27 30  1  0  0  0  0
 28 27  1  0  0  0  0
 31 32  1  0  0  0  0
 32  1  1  0  0  0  0
M  END
>  <minimizedAffinity>
-5.72150421

$$$$

 OpenBabel09122220513D

 32 33  0  0  0  0  0  0  0  0999 V2000
   10.0410    4.2620    0.6920 C   0  0  0  0  0  0  0  0  0  0  0  0
    9.3200    5.2340    0.0080 C   0  0  0  0  0  3  0  0  0  0  0  0
    9.3560    6.5580    0.4340 C   0  0  0  0  0  3  0  0  0  0  0  0
   10.1090    6.9570    1.5540 C   0  0  0  0  0  0  0  0  0  0  0  0
   10.1950    8.3170    1.9660 C   0  0  0  0  0  0  0  0  0  0  0  0
   10.9110    8.6840    3.1130 C   0  0  0  0  0  0  0  0  0  0  0  0
   11.0470   10.4780    3.7250 Br  0  0  0  0  0  0  0  0  0  0  0  0
   11.5770    7.7090    3.8430 C   0  0  0  0  0  3  0  0  0  0  0  0
   11.5250    6.3750    3.4340 C   0  0  0  0  0  3  0  0  0  0  0  0
   10.8050    5.9570    2.2880 C   0  0  0  0  0  0  0  0  0  0  0  0
   10.7610    4.5920    1.8510 C   0  0  0  0  0  0  0  0  0  0  0  0
    9.4660    9.3650    1.2160 C   0  0  0  0  0  0  0  0  0  0  0  0
    8.2980    9.5240    1.5660 O   0  0  0  0  0  0  0  0  0  0  0  0
   10.1590   10.1010    0.2580 N   0  0  0  0  0  0  0  0  0  0  0  0
    9.4480   10.9110   -0.6250 C   0  0  0  0  0  0  0  0  0  0  0  0
    8.2310   11.0770   -0.6430 O   0  0  0  0  0  0  0  0  0  0  0  0
   11.6140    9.9230    0.0290 C   0  0  0  0  0  2  0  0  0  0  0  0
   11.9900    8.7710   -0.9270 C   0  0  0  0  0  0  0  0  0  0  0  0
   12.6880    7.8590   -0.3940 O   0  0  0  0  0  1  0  0  0  0  0  0
   11.5490    8.8490   -2.1080 O   0  0  0  0  0  0  0  0  0  0  0  0
   10.2670   11.5830   -1.4930 O   0  0  0  0  0  0  0  0  0  0  0  0
   10.0050   12.9850   -1.6130 C   0  0  0  0  0  2  0  0  0  0  0  0
    9.6470   13.3310   -3.0760 C   0  0  0  0  0  0  0  0  0  0  0  0
   10.7290   14.2380   -3.6870 C   0  0  0  0  0  1  0  0  0  0  0  0
    9.5570   12.0310   -3.8890 C   0  0  0  0  0  1  0  0  0  0  0  0
    8.2950   14.0610   -3.1350 C   0  0  0  0  0  1  0  0  0  0  0  0
   11.5010    3.5250    2.6230 C   0  0  0  0  0  0  0  0  0  0  0  0
   12.6920    3.1960    2.0320 F   0  0  0  0  0  0  0  0  0  0  0  0
   11.8240    3.8080    3.9160 F   0  0  0  0  0  0  0  0  0  0  0  0
   10.8060    2.3480    2.6910 F   0  0  0  0  0  0  0  0  0  0  0  0
   11.0440    2.6590   -0.6660 C   0  0  0  0  0  1  0  0  0  0  0  0
   10.0070    2.9580    0.2710 O   0  0  0  0  0  0  0  0  0  0  0  0
  1 11  1  0  0  0  0
  2  3  1  0  0  0  0
  2  1  2  0  0  0  0
  3  4  2  0  0  0  0
  4  5  1  0  0  0  0
  4 10  1  0  0  0  0
  5  6  2  0  0  0  0
  6  7  1  0  0  0  0
  6  8  1  0  0  0  0
  9  8  2  0  0  0  0
 10  9  1  0  0  0  0
 11 10  2  0  0  0  0
 11 27  1  0  0  0  0
 12 13  2  0  0  0  0
 12  5  1  0  0  0  0
 14 12  1  0  0  0  0
 15 14  1  0  0  0  0
 16 15  2  0  0  0  0
 17 14  1  0  0  0  0
 18 19  1  0  0  0  0
 18 17  1  0  0  0  0
 20 18  2  0  0  0  0
 21 15  1  0  0  0  0
 22 21  1  0  0  0  0
 23 22  1  0  0  0  0
 24 23  1  0  0  0  0
 25 23  1  0  0  0  0
 26 23  1  0  0  0  0
 27 30  1  0  0  0  0
 27 29  1  0  0  0  0
 28 27  1  0  0  0  0
 31 32  1  0  0  0  0
 32  1  1  0  0  0  0
M  END
>  <minimizedAffinity>
-5.30634546

$$$$

 OpenBabel09122220513D

 32 33  0  0  0  0  0  0  0  0999 V2000
    9.0340    9.1790   -4.4910 C   0  0  0  0  0  0  0  0  0  0  0  0
    9.8210    8.3700   -3.6790 C   0  0  0  0  0  3  0  0  0  0  0  0
   10.3450    8.8730   -2.4930 C   0  0  0  0  0  3  0  0  0  0  0  0
   10.1060   10.1960   -2.0770 C   0  0  0  0  0  0  0  0  0  0  0  0
   10.5940   10.7040   -0.8400 C   0  0  0  0  0  0  0  0  0  0  0  0
   10.3850   12.0380   -0.4700 C   0  0  0  0  0  0  0  0  0  0  0  0
   11.0260   12.7800    1.1590 Br  0  0  0  0  0  0  0  0  0  0  0  0
    9.6600   12.8740   -1.3090 C   0  0  0  0  0  3  0  0  0  0  0  0
    9.1510   12.3820   -2.5130 C   0  0  0  0  0  3  0  0  0  0  0  0
    9.3470   11.0430   -2.9320 C   0  0  0  0  0  0  0  0  0  0  0  0
    8.8130   10.5250   -4.1570 C   0  0  0  0  0  0  0  0  0  0  0  0
   11.3930    9.8340    0.0530 C   0  0  0  0  0  0  0  0  0  0  0  0
   12.5980   10.0820    0.0610 O   0  0  0  0  0  0  0  0  0  0  0  0
   10.7290    8.8870    0.8300 N   0  0  0  0  0  0  0  0  0  0  0  0
   11.4680    7.9020    1.4820 C   0  0  0  0  0  0  0  0  0  0  0  0
   12.6900    7.7810    1.4720 O   0  0  0  0  0  0  0  0  0  0  0  0
    9.2500    8.7830    0.8490 C   0  0  0  0  0  2  0  0  0  0  0  0
    8.5550    9.5380    2.0010 C   0  0  0  0  0  0  0  0  0  0  0  0
    8.1920    8.8000    2.9630 O   0  0  0  0  0  1  0  0  0  0  0  0
    8.4480   10.7900    1.8740 O   0  0  0  0  0  0  0  0  0  0  0  0
   10.6790    7.0590    2.2190 O   0  0  0  0  0  0  0  0  0  0  0  0
   11.3220    5.8640    2.6700 C   0  0  0  0  0  2  0  0  0  0  0  0
   11.0540    4.7120    1.6760 C   0  0  0  0  0  0  0  0  0  0  0  0
   12.3210    4.4080    0.8610 C   0  0  0  0  0  1  0  0  0  0  0  0
   10.6450    3.4580    2.4650 C   0  0  0  0  0  1  0  0  0  0  0  0
    9.9200    5.0950    0.7100 C   0  0  0  0  0  1  0  0  0  0  0  0
    8.0030   11.4170   -5.0680 C   0  0  0  0  0  0  0  0  0  0  0  0
    6.6690   11.1080   -5.0350 F   0  0  0  0  0  0  0  0  0  0  0  0
    8.0520   12.7570   -4.8260 F   0  0  0  0  0  0  0  0  0  0  0  0
    8.3610   11.2910   -6.3830 F   0  0  0  0  0  0  0  0  0  0  0  0
    7.4330    7.7780   -5.4360 C   0  0  0  0  0  1  0  0  0  0  0  0
    8.5160    8.6840   -5.6600 O   0  0  0  0  0  0  0  0  0  0  0  0
  1 11  2  0  0  0  0
  1  2  1  0  0  0  0
  2  3  2  0  0  0  0
  3  4  1  0  0  0  0
  4  5  1  0  0  0  0
  5  6  2  0  0  0  0
  5 12  1  0  0  0  0
  6  7  1  0  0  0  0
  8  6  1  0  0  0  0
  9  8  2  0  0  0  0
 10  9  1  0  0  0  0
 10  4  2  0  0  0  0
 11 10  1  0  0  0  0
 12 13  2  0  0  0  0
 12 14  1  0  0  0  0
 14 17  1  0  0  0  0
 14 15  1  0  0  0  0
 15 21  1  0  0  0  0
 16 15  2  0  0  0  0
 17 18  1  0  0  0  0
 18 19  1  0  0  0  0
 20 18  2  0  0  0  0
 21 22  1  0  0  0  0
 23 25  1  0  0  0  0
 23 22  1  0  0  0  0
 24 23  1  0  0  0  0
 26 23  1  0  0  0  0
 27 28  1  0  0  0  0
 27 29  1  0  0  0  0
 27 11  1  0  0  0  0
 30 27  1  0  0  0  0
 32 31  1  0  0  0  0
 32  1  1  0  0  0  0
M  END
>  <minimizedAffinity>
-5.019557

$$$$

 OpenBabel09122220513D

 32 33  0  0  0  0  0  0  0  0999 V2000
   11.0340   11.3160   -3.1380 C   0  0  0  0  0  0  0  0  0  0  0  0
   11.8080   10.3800   -2.4620 C   0  0  0  0  0  3  0  0  0  0  0  0
   11.6030   10.1560   -1.1040 C   0  0  0  0  0  3  0  0  0  0  0  0
   10.6240   10.8560   -0.3750 C   0  0  0  0  0  0  0  0  0  0  0  0
   10.3710   10.5970    1.0010 C   0  0  0  0  0  0  0  0  0  0  0  0
    9.4250   11.3400    1.7180 C   0  0  0  0  0  0  0  0  0  0  0  0
    9.0550   11.0540    3.5610 Br  0  0  0  0  0  0  0  0  0  0  0  0
    8.6960   12.3260    1.0680 C   0  0  0  0  0  3  0  0  0  0  0  0
    8.9130   12.5720   -0.2900 C   0  0  0  0  0  3  0  0  0  0  0  0
    9.8660   11.8530   -1.0510 C   0  0  0  0  0  0  0  0  0  0  0  0
   10.0840   12.0870   -2.4490 C   0  0  0  0  0  0  0  0  0  0  0  0
   11.1600    9.5690    1.7170 C   0  0  0  0  0  0  0  0  0  0  0  0
   12.1330   10.0070    2.3300 O   0  0  0  0  0  0  0  0  0  0  0  0
   10.7130    8.2490    1.6930 N   0  0  0  0  0  0  0  0  0  0  0  0
   11.5570    7.2360    2.1420 C   0  0  0  0  0  0  0  0  0  0  0  0
   12.6880    7.3780    2.5990 O   0  0  0  0  0  0  0  0  0  0  0  0
    9.4360    7.8630    1.0450 C   0  0  0  0  0  2  0  0  0  0  0  0
    9.5210    7.6150   -0.4760 C   0  0  0  0  0  0  0  0  0  0  0  0
   10.6090    7.0910   -0.8570 O   0  0  0  0  0  1  0  0  0  0  0  0
    8.5070    7.9310   -1.1580 O   0  0  0  0  0  0  0  0  0  0  0  0
   10.9720    6.0000    2.0730 O   0  0  0  0  0  0  0  0  0  0  0  0
   11.8380    4.9390    1.6580 C   0  0  0  0  0  2  0  0  0  0  0  0
   11.0010    3.7250    1.1970 C   0  0  0  0  0  0  0  0  0  0  0  0
   11.7840    2.9030    0.1600 C   0  0  0  0  0  1  0  0  0  0  0  0
   10.6920    2.8400    2.4150 C   0  0  0  0  0  1  0  0  0  0  0  0
    9.6810    4.1960    0.5650 C   0  0  0  0  0  1  0  0  0  0  0  0
    9.2800   13.1400   -3.1750 C   0  0  0  0  0  0  0  0  0  0  0  0
    8.4310   12.5930   -4.0990 F   0  0  0  0  0  0  0  0  0  0  0  0
    8.4870   13.9480   -2.4150 F   0  0  0  0  0  0  0  0  0  0  0  0
   10.0670   14.0040   -3.8880 F   0  0  0  0  0  0  0  0  0  0  0  0
   12.6060   11.7850   -4.7890 C   0  0  0  0  0  1  0  0  0  0  0  0
   11.2340   11.5360   -4.4760 O   0  0  0  0  0  0  0  0  0  0  0  0
  1  2  2  0  0  0  0
  1 11  1  0  0  0  0
  2  3  1  0  0  0  0
  3  4  2  0  0  0  0
  4  5  1  0  0  0  0
  5 12  1  0  0  0  0
  5  6  2  0  0  0  0
  6  7  1  0  0  0  0
  8  6  1  0  0  0  0
  9  8  2  0  0  0  0
 10  4  1  0  0  0  0
 10  9  1  0  0  0  0
 11 10  2  0  0  0  0
 12 13  2  0  0  0  0
 14 12  1  0  0  0  0
 14 15  1  0  0  0  0
 15 16  2  0  0  0  0
 17 14  1  0  0  0  0
 18 17  1  0  0  0  0
 19 18  1  0  0  0  0
 20 18  2  0  0  0  0
 21 15  1  0  0  0  0
 22 21  1  0  0  0  0
 23 22  1  0  0  0  0
 23 25  1  0  0  0  0
 24 23  1  0  0  0  0
 26 23  1  0  0  0  0
 27 11  1  0  0  0  0
 27 29  1  0  0  0  0
 28 27  1  0  0  0  0
 30 27  1  0  0  0  0
 31 32  1  0  0  0  0
 32  1  1  0  0  0  0
M  END
>  <minimizedAffinity>
-4.78397083

$$$$

 OpenBabel09122220513D

 32 33  0  0  0  0  0  0  0  0999 V2000
   10.2340    1.9840    0.5950 C   0  0  0  0  0  0  0  0  0  0  0  0
   10.4340    2.8100   -0.5050 C   0  0  0  0  0  3  0  0  0  0  0  0
   10.7710    4.1460   -0.3200 C   0  0  0  0  0  3  0  0  0  0  0  0
   10.9190    4.7050    0.9630 C   0  0  0  0  0  0  0  0  0  0  0  0
   11.3160    6.0580    1.1620 C   0  0  0  0  0  0  0  0  0  0  0  0
   11.4090    6.6050    2.4480 C   0  0  0  0  0  0  0  0  0  0  0  0
   11.9150    8.4070    2.7780 Br  0  0  0  0  0  0  0  0  0  0  0  0
   11.1420    5.8060    3.5510 C   0  0  0  0  0  3  0  0  0  0  0  0
   10.7800    4.4680    3.3720 C   0  0  0  0  0  3  0  0  0  0  0  0
   10.6630    3.8770    2.0910 C   0  0  0  0  0  0  0  0  0  0  0  0
   10.3080    2.5010    1.8980 C   0  0  0  0  0  0  0  0  0  0  0  0
   11.5760    6.9310   -0.0040 C   0  0  0  0  0  0  0  0  0  0  0  0
   12.6920    6.7960   -0.5050 O   0  0  0  0  0  0  0  0  0  0  0  0
   10.5500    7.7550   -0.4620 N   0  0  0  0  0  0  0  0  0  0  0  0
   10.8400    8.7550   -1.3880 C   0  0  0  0  0  0  0  0  0  0  0  0
   11.9370    8.9890   -1.8880 O   0  0  0  0  0  0  0  0  0  0  0  0
    9.1900    7.7200    0.1300 C   0  0  0  0  0  2  0  0  0  0  0  0
    8.6910    9.0630    0.7040 C   0  0  0  0  0  0  0  0  0  0  0  0
    7.5380    9.4030    0.3060 O   0  0  0  0  0  0  0  0  0  0  0  0
    9.4610    9.6530    1.5130 O   0  0  0  0  0  1  0  0  0  0  0  0
    9.7280    9.4660   -1.7540 O   0  0  0  0  0  0  0  0  0  0  0  0
    9.4550    9.4880   -3.1580 C   0  0  0  0  0  2  0  0  0  0  0  0
    9.3660   10.9470   -3.6570 C   0  0  0  0  0  0  0  0  0  0  0  0
    8.4620   11.0310   -4.8980 C   0  0  0  0  0  1  0  0  0  0  0  0
    8.7750   11.8210   -2.5390 C   0  0  0  0  0  1  0  0  0  0  0  0
   10.7640   11.4710   -4.0240 C   0  0  0  0  0  1  0  0  0  0  0  0
   10.0380    1.6130    3.0910 C   0  0  0  0  0  0  0  0  0  0  0  0
    9.5720    0.3800    2.7190 F   0  0  0  0  0  0  0  0  0  0  0  0
   11.0910    1.3480    3.9160 F   0  0  0  0  0  0  0  0  0  0  0  0
    9.0720    2.1210    3.9160 F   0  0  0  0  0  0  0  0  0  0  0  0
   10.3280    0.1650   -0.8560 C   0  0  0  0  0  1  0  0  0  0  0  0
    9.9030    0.6660    0.4140 O   0  0  0  0  0  0  0  0  0  0  0  0
  1 11  1  0  0  0  0
  2  3  1  0  0  0  0
  2  1  2  0  0  0  0
  3  4  2  0  0  0  0
  4  5  1  0  0  0  0
  4 10  1  0  0  0  0
  5  6  2  0  0  0  0
  6  7  1  0  0  0  0
  6  8  1  0  0  0  0
  9  8  2  0  0  0  0
 10  9  1  0  0  0  0
 11 10  2  0  0  0  0
 11 27  1  0  0  0  0
 12  5  1  0  0  0  0
 13 12  2  0  0  0  0
 14 12  1  0  0  0  0
 14 17  1  0  0  0  0
 15 14  1  0  0  0  0
 16 15  2  0  0  0  0
 17 18  1  0  0  0  0
 18 20  1  0  0  0  0
 19 18  2  0  0  0  0
 21 15  1  0  0  0  0
 22 21  1  0  0  0  0
 23 22  1  0  0  0  0
 23 25  1  0  0  0  0
 24 23  1  0  0  0  0
 26 23  1  0  0  0  0
 27 29  1  0  0  0  0
 27 30  1  0  0  0  0
 28 27  1  0  0  0  0
 31 32  1  0  0  0  0
 32  1  1  0  0  0  0
M  END
>  <minimizedAffinity>
-4.10382652

$$$$

 OpenBabel09122220513D

 32 33  0  0  0  0  0  0  0  0999 V2000
   10.1020   10.4840   -3.5610 C   0  0  0  0  0  0  0  0  0  0  0  0
   10.9110   10.8920   -2.5070 C   0  0  0  0  0  3  0  0  0  0  0  0
   11.0340   10.0950   -1.3740 C   0  0  0  0  0  3  0  0  0  0  0  0
   10.3560    8.8680   -1.2510 C   0  0  0  0  0  0  0  0  0  0  0  0
   10.5170    8.0200   -0.1190 C   0  0  0  0  0  0  0  0  0  0  0  0
    9.7940    6.8260    0.0020 C   0  0  0  0  0  0  0  0  0  0  0  0
    9.9510    5.6620    1.4970 Br  0  0  0  0  0  0  0  0  0  0  0  0
    8.9300    6.4450   -1.0140 C   0  0  0  0  0  3  0  0  0  0  0  0
    8.7830    7.2530   -2.1450 C   0  0  0  0  0  3  0  0  0  0  0  0
    9.4850    8.4720   -2.3050 C   0  0  0  0  0  0  0  0  0  0  0  0
    9.3550    9.2990   -3.4690 C   0  0  0  0  0  0  0  0  0  0  0  0
   11.4130    8.4260    0.9870 C   0  0  0  0  0  0  0  0  0  0  0  0
   12.4640    7.7880    1.0530 O   0  0  0  0  0  0  0  0  0  0  0  0
   11.0360    9.5000    1.7910 N   0  0  0  0  0  0  0  0  0  0  0  0
   11.7290    9.7410    2.9750 C   0  0  0  0  0  0  0  0  0  0  0  0
   12.6900    9.1050    3.4000 O   0  0  0  0  0  0  0  0  0  0  0  0
    9.8120   10.2930    1.5190 C   0  0  0  0  0  2  0  0  0  0  0  0
    8.4820    9.5580    1.7840 C   0  0  0  0  0  0  0  0  0  0  0  0
    7.6970    9.5290    0.7920 O   0  0  0  0  0  0  0  0  0  0  0  0
    8.3350    9.0510    2.9320 O   0  0  0  0  0  1  0  0  0  0  0  0
   11.2540   10.8380    3.6440 O   0  0  0  0  0  0  0  0  0  0  0  0
   12.2270   11.8510    3.9160 C   0  0  0  0  0  2  0  0  0  0  0  0
   11.9510   13.0960    3.0440 C   0  0  0  0  0  0  0  0  0  0  0  0
   12.5020   14.3580    3.7280 C   0  0  0  0  0  1  0  0  0  0  0  0
   12.6410   12.9150    1.6830 C   0  0  0  0  0  1  0  0  0  0  0  0
   10.4380   13.2690    2.8260 C   0  0  0  0  0  1  0  0  0  0  0  0
    8.4350    8.8840   -4.5940 C   0  0  0  0  0  0  0  0  0  0  0  0
    9.1250    8.5920   -5.7400 F   0  0  0  0  0  0  0  0  0  0  0  0
    7.6470    7.7930   -4.3790 F   0  0  0  0  0  0  0  0  0  0  0  0
    7.5620    9.8750   -4.9520 F   0  0  0  0  0  0  0  0  0  0  0  0
    9.7910   12.6490   -4.3590 C   0  0  0  0  0  1  0  0  0  0  0  0
    9.9820   11.2690   -4.6780 O   0  0  0  0  0  0  0  0  0  0  0  0
  1 11  2  0  0  0  0
  1  2  1  0  0  0  0
  2  3  2  0  0  0  0
  3  4  1  0  0  0  0
  4  5  1  0  0  0  0
  5  6  2  0  0  0  0
  5 12  1  0  0  0  0
  6  7  1  0  0  0  0
  8  6  1  0  0  0  0
  9  8  2  0  0  0  0
 10  9  1  0  0  0  0
 10  4  2  0  0  0  0
 11 10  1  0  0  0  0
 12 13  2  0  0  0  0
 12 14  1  0  0  0  0
 14 15  1  0  0  0  0
 15 16  2  0  0  0  0
 15 21  1  0  0  0  0
 17 18  1  0  0  0  0
 17 14  1  0  0  0  0
 18 20  1  0  0  0  0
 19 18  2  0  0  0  0
 21 22  1  0  0  0  0
 23 24  1  0  0  0  0
 23 22  1  0  0  0  0
 25 23  1  0  0  0  0
 26 23  1  0  0  0  0
 27 29  1  0  0  0  0
 27 11  1  0  0  0  0
 28 27  1  0  0  0  0
 30 27  1  0  0  0  0
 32 31  1  0  0  0  0
 32  1  1  0  0  0  0
M  END
>  <minimizedAffinity>
-3.85839152

$$$$

 OpenBabel09122220513D

 32 33  0  0  0  0  0  0  0  0999 V2000
    8.3660   12.6120   -2.0030 C   0  0  0  0  0  0  0  0  0  0  0  0
    8.7990   12.4740   -0.6890 C   0  0  0  0  0  3  0  0  0  0  0  0
    9.6660   11.4430   -0.3450 C   0  0  0  0  0  3  0  0  0  0  0  0
   10.1300   10.5140   -1.2950 C   0  0  0  0  0  0  0  0  0  0  0  0
   11.0590    9.4880   -0.9640 C   0  0  0  0  0  0  0  0  0  0  0  0
   11.4690    8.5450   -1.9150 C   0  0  0  0  0  0  0  0  0  0  0  0
   12.6910    7.1410   -1.5300 Br  0  0  0  0  0  0  0  0  0  0  0  0
   10.9860    8.6320   -3.2140 C   0  0  0  0  0  3  0  0  0  0  0  0
   10.0960    9.6510   -3.5610 C   0  0  0  0  0  3  0  0  0  0  0  0
    9.6470   10.6180   -2.6300 C   0  0  0  0  0  0  0  0  0  0  0  0
    8.7480   11.6790   -2.9810 C   0  0  0  0  0  0  0  0  0  0  0  0
   11.5610    9.3640    0.4230 C   0  0  0  0  0  0  0  0  0  0  0  0
   12.2910   10.2850    0.7860 O   0  0  0  0  0  0  0  0  0  0  0  0
   11.1260    8.2890    1.1950 N   0  0  0  0  0  0  0  0  0  0  0  0
   11.7660    8.0140    2.4020 C   0  0  0  0  0  0  0  0  0  0  0  0
   12.6920    8.6500    2.8980 O   0  0  0  0  0  0  0  0  0  0  0  0
   10.1190    7.3190    0.6980 C   0  0  0  0  0  2  0  0  0  0  0  0
    8.7540    7.9300    0.3170 C   0  0  0  0  0  0  0  0  0  0  0  0
    8.3080    8.7680    1.1530 O   0  0  0  0  0  1  0  0  0  0  0  0
    8.2530    7.5530   -0.7800 O   0  0  0  0  0  0  0  0  0  0  0  0
   11.2160    6.9420    3.0530 O   0  0  0  0  0  0  0  0  0  0  0  0
   12.1570    6.0040    3.5830 C   0  0  0  0  0  2  0  0  0  0  0  0
   11.9180    4.6090    2.9630 C   0  0  0  0  0  0  0  0  0  0  0  0
   10.4110    4.3100    2.8920 C   0  0  0  0  0  1  0  0  0  0  0  0
   12.5070    4.5860    1.5440 C   0  0  0  0  0  1  0  0  0  0  0  0
   12.6000    3.5240    3.8130 C   0  0  0  0  0  1  0  0  0  0  0  0
    8.2340   11.7990   -4.3960 C   0  0  0  0  0  0  0  0  0  0  0  0
    6.9180   11.4310   -4.4980 F   0  0  0  0  0  0  0  0  0  0  0  0
    8.2920   13.0330   -4.9730 F   0  0  0  0  0  0  0  0  0  0  0  0
    8.8970   10.9790   -5.2680 F   0  0  0  0  0  0  0  0  0  0  0  0
    7.1390   14.4280   -1.2180 C   0  0  0  0  0  1  0  0  0  0  0  0
    7.5130   13.6290   -2.3430 O   0  0  0  0  0  0  0  0  0  0  0  0
  1  2  1  0  0  0  0
  2  3  2  0  0  0  0
  4  5  1  0  0  0  0
  4  3  1  0  0  0  0
  5 12  1  0  0  0  0
  6  7  1  0  0  0  0
  6  5  2  0  0  0  0
  8  6  1  0  0  0  0
  9  8  2  0  0  0  0
  9 10  1  0  0  0  0
 10  4  2  0  0  0  0
 11 10  1  0  0  0  0
 11  1  2  0  0  0  0
 12 13  2  0  0  0  0
 12 14  1  0  0  0  0
 14 15  1  0  0  0  0
 15 16  2  0  0  0  0
 15 21  1  0  0  0  0
 17 14  1  0  0  0  0
 18 17  1  0  0  0  0
 18 19  1  0  0  0  0
 20 18  2  0  0  0  0
 21 22  1  0  0  0  0
 23 22  1  0  0  0  0
 23 26  1  0  0  0  0
 24 23  1  0  0  0  0
 25 23  1  0  0  0  0
 27 11  1  0  0  0  0
 28 27  1  0  0  0  0
 29 27  1  0  0  0  0
 30 27  1  0  0  0  0
 32  1  1  0  0  0  0
 32 31  1  0  0  0  0
M  END
>  <minimizedAffinity>
-3.79461503

$$$$

 OpenBabel09122220513D

 32 33  0  0  0  0  0  0  0  0999 V2000
   11.1080    9.0470   -3.3300 C   0  0  0  0  0  0  0  0  0  0  0  0
   11.9050    8.5380   -2.3110 C   0  0  0  0  0  3  0  0  0  0  0  0
   11.6250    8.8500   -0.9850 C   0  0  0  0  0  3  0  0  0  0  0  0
   10.5450    9.6780   -0.6290 C   0  0  0  0  0  0  0  0  0  0  0  0
   10.2190    9.9600    0.7280 C   0  0  0  0  0  0  0  0  0  0  0  0
    9.1690   10.8270    1.0570 C   0  0  0  0  0  0  0  0  0  0  0  0
    8.6960   11.2570    2.8470 Br  0  0  0  0  0  0  0  0  0  0  0  0
    8.4110   11.3960    0.0430 C   0  0  0  0  0  3  0  0  0  0  0  0
    8.7010   11.1060   -1.2920 C   0  0  0  0  0  3  0  0  0  0  0  0
    9.7600   10.2450   -1.6710 C   0  0  0  0  0  0  0  0  0  0  0  0
   10.0540    9.9270   -3.0380 C   0  0  0  0  0  0  0  0  0  0  0  0
   11.0350    9.3840    1.8200 C   0  0  0  0  0  0  0  0  0  0  0  0
   11.8900   10.1440    2.2730 O   0  0  0  0  0  0  0  0  0  0  0  0
   10.7350    8.1010    2.2710 N   0  0  0  0  0  0  0  0  0  0  0  0
   11.6310    7.4470    3.1140 C   0  0  0  0  0  0  0  0  0  0  0  0
   12.6890    7.8990    3.5440 O   0  0  0  0  0  0  0  0  0  0  0  0
    9.5770    7.3350    1.7490 C   0  0  0  0  0  2  0  0  0  0  0  0
    9.7960    6.6740    0.3720 C   0  0  0  0  0  0  0  0  0  0  0  0
   10.9530    6.1900    0.2050 O   0  0  0  0  0  1  0  0  0  0  0  0
    8.8080    6.6650   -0.4150 O   0  0  0  0  0  0  0  0  0  0  0  0
   11.1890    6.2060    3.4850 O   0  0  0  0  0  0  0  0  0  0  0  0
   12.1500    5.1540    3.3550 C   0  0  0  0  0  2  0  0  0  0  0  0
   11.4280    3.7970    3.1920 C   0  0  0  0  0  0  0  0  0  0  0  0
   11.1920    3.4970    1.7030 C   0  0  0  0  0  1  0  0  0  0  0  0
   12.3040    2.6900    3.8000 C   0  0  0  0  0  1  0  0  0  0  0  0
   10.0720    3.8250    3.9150 C   0  0  0  0  0  1  0  0  0  0  0  0
    9.2220   10.5210   -4.1500 C   0  0  0  0  0  0  0  0  0  0  0  0
    8.7370    9.5610   -4.9980 F   0  0  0  0  0  0  0  0  0  0  0  0
    8.1250   11.2440   -3.7850 F   0  0  0  0  0  0  0  0  0  0  0  0
    9.9400   11.3670   -4.9510 F   0  0  0  0  0  0  0  0  0  0  0  0
   12.6200    9.2980   -5.0820 C   0  0  0  0  0  1  0  0  0  0  0  0
   11.3820    8.7380   -4.6370 O   0  0  0  0  0  0  0  0  0  0  0  0
  1 11  2  0  0  0  0
  1  2  1  0  0  0  0
  2  3  2  0  0  0  0
  3  4  1  0  0  0  0
  4  5  1  0  0  0  0
  5  6  2  0  0  0  0
  5 12  1  0  0  0  0
  6  7  1  0  0  0  0
  8  6  1  0  0  0  0
  9  8  2  0  0  0  0
 10  9  1  0  0  0  0
 10  4  2  0  0  0  0
 11 10  1  0  0  0  0
 12 14  1  0  0  0  0
 12 13  2  0  0  0  0
 14 15  1  0  0  0  0
 15 21  1  0  0  0  0
 15 16  2  0  0  0  0
 17 14  1  0  0  0  0
 18 17  1  0  0  0  0
 19 18  1  0  0  0  0
 20 18  2  0  0  0  0
 22 21  1  0  0  0  0
 23 22  1  0  0  0  0
 23 25  1  0  0  0  0
 23 26  1  0  0  0  0
 24 23  1  0  0  0  0
 27 29  1  0  0  0  0
 27 11  1  0  0  0  0
 28 27  1  0  0  0  0
 30 27  1  0  0  0  0
 31 32  1  0  0  0  0
 32  1  1  0  0  0  0
M  END
>  <minimizedAffinity>
-3.60384655

$$$$

 OpenBabel09122220513D

 32 33  0  0  0  0  0  0  0  0999 V2000
   10.2980    0.8870   -0.2760 C   0  0  0  0  0  0  0  0  0  0  0  0
   10.7880    1.8910   -1.1040 C   0  0  0  0  0  3  0  0  0  0  0  0
   11.0160    3.1650   -0.5950 C   0  0  0  0  0  3  0  0  0  0  0  0
   10.7640    3.4830    0.7530 C   0  0  0  0  0  0  0  0  0  0  0  0
   11.0440    4.7680    1.2970 C   0  0  0  0  0  0  0  0  0  0  0  0
   10.7390    5.0750    2.6290 C   0  0  0  0  0  0  0  0  0  0  0  0
   11.0710    6.7770    3.4070 Br  0  0  0  0  0  0  0  0  0  0  0  0
   10.1840    4.0990    3.4440 C   0  0  0  0  0  3  0  0  0  0  0  0
    9.9300    2.8240    2.9330 C   0  0  0  0  0  3  0  0  0  0  0  0
   10.2120    2.4730    1.5900 C   0  0  0  0  0  0  0  0  0  0  0  0
    9.9710    1.1620    1.0610 C   0  0  0  0  0  0  0  0  0  0  0  0
   11.6090    5.8290    0.4330 C   0  0  0  0  0  0  0  0  0  0  0  0
   12.6910    5.5470   -0.0800 O   0  0  0  0  0  0  0  0  0  0  0  0
   10.8640    6.9880    0.2270 N   0  0  0  0  0  0  0  0  0  0  0  0
   11.4700    8.0910   -0.3700 C   0  0  0  0  0  0  0  0  0  0  0  0
   12.6270    8.1560   -0.7770 O   0  0  0  0  0  0  0  0  0  0  0  0
    9.4960    7.1520    0.7780 C   0  0  0  0  0  2  0  0  0  0  0  0
    8.4450    7.6750   -0.2230 C   0  0  0  0  0  0  0  0  0  0  0  0
    8.3450    6.9850   -1.2800 O   0  0  0  0  0  0  0  0  0  0  0  0
    7.7930    8.6990    0.1240 O   0  0  0  0  0  1  0  0  0  0  0  0
   10.6080    9.1440   -0.5210 O   0  0  0  0  0  0  0  0  0  0  0  0
   10.9600   10.3270    0.2030 C   0  0  0  0  0  2  0  0  0  0  0  0
   10.3120   11.5630   -0.4590 C   0  0  0  0  0  0  0  0  0  0  0  0
   11.3770   12.6370   -0.7370 C   0  0  0  0  0  1  0  0  0  0  0  0
    9.6630   11.1370   -1.7850 C   0  0  0  0  0  1  0  0  0  0  0  0
    9.2350   12.1590    0.4630 C   0  0  0  0  0  1  0  0  0  0  0  0
    9.3890    0.0830    1.9440 C   0  0  0  0  0  0  0  0  0  0  0  0
    9.7870   -1.1680    1.5560 F   0  0  0  0  0  0  0  0  0  0  0  0
    9.6890    0.1430    3.2730 F   0  0  0  0  0  0  0  0  0  0  0  0
    8.0220    0.0480    1.9010 F   0  0  0  0  0  0  0  0  0  0  0  0
   10.8850   -0.6530   -1.9210 C   0  0  0  0  0  1  0  0  0  0  0  0
   10.0750   -0.3690   -0.7780 O   0  0  0  0  0  0  0  0  0  0  0  0
  1 11  1  0  0  0  0
  2  3  1  0  0  0  0
  2  1  2  0  0  0  0
  3  4  2  0  0  0  0
  4  5  1  0  0  0  0
  4 10  1  0  0  0  0
  5  6  2  0  0  0  0
  6  7  1  0  0  0  0
  6  8  1  0  0  0  0
  9  8  2  0  0  0  0
 10  9  1  0  0  0  0
 11 10  2  0  0  0  0
 11 27  1  0  0  0  0
 12  5  1  0  0  0  0
 13 12  2  0  0  0  0
 14 12  1  0  0  0  0
 14 17  1  0  0  0  0
 15 14  1  0  0  0  0
 16 15  2  0  0  0  0
 18 20  1  0  0  0  0
 18 17  1  0  0  0  0
 19 18  2  0  0  0  0
 21 15  1  0  0  0  0
 21 22  1  0  0  0  0
 23 22  1  0  0  0  0
 23 26  1  0  0  0  0
 24 23  1  0  0  0  0
 25 23  1  0  0  0  0
 27 29  1  0  0  0  0
 28 27  1  0  0  0  0
 30 27  1  0  0  0  0
 31 32  1  0  0  0  0
 32  1  1  0  0  0  0
M  END
>  <minimizedAffinity>
-3.35348296

$$$$
