
 OpenBabel09132204463D

 31 34  0  0  1  0  0  0  0  0999 V2000
   -2.4200    1.1890   -4.8260 C   0  0  1  0  0  0  0  0  0  0  0  0
   -1.2330    1.4460   -5.7380 C   0  0  0  0  0  2  0  0  0  0  0  0
   -1.7490    1.8120   -7.0860 C   0  0  0  0  0  0  0  0  0  0  0  0
   -1.3500    1.2240   -8.0960 O   0  0  0  0  0  0  0  0  0  0  0  0
   -2.7460    2.9200   -7.1060 C   0  0  2  0  0  3  0  0  0  0  0  0
   -3.5230    3.1300   -6.0010 C   0  0  0  0  0  0  0  0  0  0  0  0
   -4.4280    4.0110   -5.9070 O   0  0  0  0  0  0  0  0  0  0  0  0
   -3.3290    2.3080   -4.8850 O   0  0  0  0  0  0  0  0  0  0  0  0
   -3.2520   -0.1140   -5.0930 C   0  0  0  0  0  3  0  0  0  0  0  0
   -2.8100   -1.3890   -4.3560 C   0  0  0  0  0  2  0  0  0  0  0  0
   -3.9560   -2.3520   -4.6150 C   0  0  0  0  0  2  0  0  0  0  0  0
   -5.1860   -1.4840   -4.4180 C   0  0  0  0  0  2  0  0  0  0  0  0
   -4.7730   -0.0720   -4.8460 C   0  0  0  0  0  2  0  0  0  0  0  0
   -1.9550    1.2490   -3.3320 C   0  0  0  0  0  2  0  0  0  0  0  0
   -1.7580    2.6000   -2.6390 C   0  0  0  0  0  2  0  0  0  0  0  0
   -4.1290    3.3700    0.8850 C   0  0  0  0  0  0  0  0  0  0  0  0
   -3.4220    4.4080    0.2770 C   0  0  0  0  0  3  0  0  0  0  0  0
   -2.6620    4.1570   -0.8670 C   0  0  0  0  0  3  0  0  0  0  0  0
   -2.6000    2.8680   -1.4170 C   0  0  0  0  0  0  0  0  0  0  0  0
   -3.2910    1.8260   -0.7790 C   0  0  0  0  0  3  0  0  0  0  0  0
   -4.0460    2.0730    0.3720 C   0  0  0  0  0  0  0  0  0  0  0  0
   -4.8630    0.7540    1.1290 Cl  0  0  0  0  0  0  0  0  0  0  0  0
   -4.9280    5.0230    2.2700 C   0  0  0  0  0  1  0  0  0  0  0  0
   -4.8430    3.6180    2.0290 O   0  0  0  0  0  0  0  0  0  0  0  0
   -2.9130    3.8130   -8.6010 S   0  0  0  0  0  0  0  0  0  0  0  0
   -1.8320    5.1190   -8.2680 C   0  0  0  0  0  0  0  0  0  0  0  0
   -0.7520    5.1080   -7.5180 N   0  0  0  0  0  0  0  0  0  0  0  0
   -0.2140    6.3800   -7.5340 N   0  0  0  0  0  0  0  0  0  0  0  0
   -0.9850    7.1210   -8.2960 C   0  0  0  0  0  3  0  0  0  0  0  0
   -2.0210    6.3750   -8.7690 N   0  0  0  0  0  0  0  0  0  0  0  0
   -3.0640    6.8320   -9.6450 C   0  0  0  0  0  1  0  0  0  0  0  0
  1 14  1  1  0  0  0
  2  1  1  0  0  0  0
  3  2  1  0  0  0  0
  4  3  2  0  0  0  0
  5 25  1  6  0  0  0
  5  3  1  0  0  0  0
  5  6  1  0  0  0  0
  6  7  2  0  0  0  0
  6  8  1  0  0  0  0
  8  1  1  0  0  0  0
  9 13  1  0  0  0  0
  9  1  1  0  0  0  0
  9 10  1  0  0  0  0
 11 12  1  0  0  0  0
 11 10  1  0  0  0  0
 13 12  1  0  0  0  0
 14 15  1  0  0  0  0
 15 19  1  0  0  0  0
 16 24  1  0  0  0  0
 17 16  2  0  0  0  0
 18 17  1  0  0  0  0
 19 18  2  0  0  0  0
 19 20  1  0  0  0  0
 20 21  2  0  0  0  0
 21 16  1  0  0  0  0
 21 22  1  0  0  0  0
 24 23  1  0  0  0  0
 25 26  1  0  0  0  0
 26 27  2  0  0  0  0
 28 27  1  0  0  0  0
 29 28  2  0  0  0  0
 30 29  1  0  0  0  0
 30 26  1  0  0  0  0
 31 30  1  0  0  0  0
M  END
>  <minimizedAffinity>
63.5598183

$$$$
