
 OpenBabel09122223513D

 31 34  0  0  1  0  0  0  0  0999 V2000
   -1.5500    7.4780   -9.4430 C   0  0  1  0  0  0  0  0  0  0  0  0
   -2.3700    7.4970  -10.7210 C   0  0  0  0  0  2  0  0  0  0  0  0
   -3.6040    8.2940  -10.4730 C   0  0  0  0  0  0  0  0  0  0  0  0
   -4.7180    7.8320  -10.7380 O   0  0  0  0  0  0  0  0  0  0  0  0
   -3.3790    9.6550   -9.9070 C   0  0  2  0  0  3  0  0  0  0  0  0
   -2.2610    9.8820   -9.1550 C   0  0  0  0  0  0  0  0  0  0  0  0
   -1.9770   10.9790   -8.5900 O   0  0  0  0  0  0  0  0  0  0  0  0
   -1.3590    8.8280   -8.9680 O   0  0  0  0  0  0  0  0  0  0  0  0
   -2.1120    6.6280   -8.2510 C   0  0  0  0  0  3  0  0  0  0  0  0
   -3.6410    6.5620   -8.1010 C   0  0  0  0  0  2  0  0  0  0  0  0
   -3.8380    5.4720   -7.0610 C   0  0  0  0  0  2  0  0  0  0  0  0
   -2.8500    4.4030   -7.4900 C   0  0  0  0  0  2  0  0  0  0  0  0
   -1.6820    5.1520   -8.1400 C   0  0  0  0  0  2  0  0  0  0  0  0
   -0.0780    7.0590   -9.7730 C   0  0  0  0  0  2  0  0  0  0  0  0
    0.9910    7.0670   -8.6770 C   0  0  0  0  0  2  0  0  0  0  0  0
    3.0330    3.3280   -7.9750 C   0  0  0  0  0  0  0  0  0  0  0  0
    3.3030    4.0670   -9.1270 C   0  0  0  0  0  3  0  0  0  0  0  0
    2.6460    5.2800   -9.3470 C   0  0  0  0  0  3  0  0  0  0  0  0
    1.7140    5.7680   -8.4200 C   0  0  0  0  0  0  0  0  0  0  0  0
    1.4280    5.0010   -7.2790 C   0  0  0  0  0  3  0  0  0  0  0  0
    2.0790    3.7820   -7.0610 C   0  0  0  0  0  0  0  0  0  0  0  0
    1.6790    2.8680   -5.6520 Cl  0  0  0  0  0  0  0  0  0  0  0  0
    3.5810    1.3290   -8.9700 C   0  0  0  0  0  1  0  0  0  0  0  0
    3.6560    2.1220   -7.7850 O   0  0  0  0  0  0  0  0  0  0  0  0
   -4.6340   10.8440  -10.1750 S   0  0  0  0  0  0  0  0  0  0  0  0
   -5.9410   10.0600   -9.3610 C   0  0  0  0  0  0  0  0  0  0  0  0
   -6.2650    8.7850   -9.3880 N   0  0  0  0  0  0  0  0  0  0  0  0
   -7.3860    8.6190   -8.5960 N   0  0  0  0  0  0  0  0  0  0  0  0
   -7.7020    9.7990   -8.1130 C   0  0  0  0  0  3  0  0  0  0  0  0
   -6.8290   10.7350   -8.5760 N   0  0  0  0  0  0  0  0  0  0  0  0
   -6.8430   12.1360   -8.2570 C   0  0  0  0  0  1  0  0  0  0  0  0
  1 14  1  6  0  0  0
  1  8  1  0  0  0  0
  1  9  1  0  0  0  0
  2  3  1  0  0  0  0
  2  1  1  0  0  0  0
  3  5  1  0  0  0  0
  4  3  2  0  0  0  0
  5 25  1  1  0  0  0
  5  6  1  0  0  0  0
  6  8  1  0  0  0  0
  6  7  2  0  0  0  0
  9 13  1  0  0  0  0
  9 10  1  0  0  0  0
 10 11  1  0  0  0  0
 12 11  1  0  0  0  0
 13 12  1  0  0  0  0
 14 15  1  0  0  0  0
 15 19  1  0  0  0  0
 16 24  1  0  0  0  0
 16 21  1  0  0  0  0
 17 16  2  0  0  0  0
 18 17  1  0  0  0  0
 18 19  2  0  0  0  0
 19 20  1  0  0  0  0
 20 21  2  0  0  0  0
 21 22  1  0  0  0  0
 23 24  1  0  0  0  0
 25 26  1  0  0  0  0
 26 30  1  0  0  0  0
 27 26  2  0  0  0  0
 27 28  1  0  0  0  0
 28 29  2  0  0  0  0
 30 31  1  0  0  0  0
 30 29  1  0  0  0  0
M  END
>  <minimizedAffinity>
61.4266167

$$$$

 OpenBabel09122223513D

 31 34  0  0  1  0  0  0  0  0999 V2000
   -1.9160    7.3640   -9.4160 C   0  0  1  0  0  0  0  0  0  0  0  0
   -0.9900    6.4090  -10.1500 C   0  0  0  0  0  2  0  0  0  0  0  0
    0.4150    6.7850   -9.8330 C   0  0  0  0  0  0  0  0  0  0  0  0
    1.2380    6.9720  -10.7360 O   0  0  0  0  0  0  0  0  0  0  0  0
    0.7320    6.8990   -8.3810 C   0  0  2  0  0  3  0  0  0  0  0  0
   -0.2690    7.2220   -7.5100 C   0  0  0  0  0  0  0  0  0  0  0  0
   -0.1210    7.3850   -6.2620 O   0  0  0  0  0  0  0  0  0  0  0  0
   -1.5600    7.4070   -8.0180 O   0  0  0  0  0  0  0  0  0  0  0  0
   -1.9700    8.8420   -9.9400 C   0  0  0  0  0  3  0  0  0  0  0  0
   -3.2760    9.2980  -10.6110 C   0  0  0  0  0  2  0  0  0  0  0  0
   -3.0920   10.8000  -10.7380 C   0  0  0  0  0  2  0  0  0  0  0  0
   -2.4940   11.1890   -9.3980 C   0  0  0  0  0  2  0  0  0  0  0  0
   -1.6700    9.9800   -8.9440 C   0  0  0  0  0  2  0  0  0  0  0  0
   -3.3540    6.7500   -9.3480 C   0  0  0  0  0  2  0  0  0  0  0  0
   -3.8890    6.1810   -8.0310 C   0  0  0  0  0  2  0  0  0  0  0  0
   -2.4640    2.2650   -6.9040 C   0  0  0  0  0  0  0  0  0  0  0  0
   -1.7870    3.0030   -7.8750 C   0  0  0  0  0  3  0  0  0  0  0  0
   -2.2460    4.2730   -8.2320 C   0  0  0  0  0  3  0  0  0  0  0  0
   -3.3850    4.8190   -7.6230 C   0  0  0  0  0  0  0  0  0  0  0  0
   -4.0760    4.0540   -6.6690 C   0  0  0  0  0  3  0  0  0  0  0  0
   -3.6220    2.7790   -6.3170 C   0  0  0  0  0  0  0  0  0  0  0  0
   -4.5170    1.8720   -5.1520 Cl  0  0  0  0  0  0  0  0  0  0  0  0
   -0.6220    1.0120   -6.3300 C   0  0  0  0  0  1  0  0  0  0  0  0
   -2.0270    1.0040   -6.5870 O   0  0  0  0  0  0  0  0  0  0  0  0
    2.4070    6.7030   -7.9150 S   0  0  0  0  0  0  0  0  0  0  0  0
    2.3760    5.0380   -7.4550 C   0  0  0  0  0  0  0  0  0  0  0  0
    1.9760    4.5180   -6.3140 N   0  0  0  0  0  0  0  0  0  0  0  0
    2.1420    3.1490   -6.3930 N   0  0  0  0  0  0  0  0  0  0  0  0
    2.6340    2.8820   -7.5820 C   0  0  0  0  0  3  0  0  0  0  0  0
    2.8080    4.0390   -8.2780 N   0  0  0  0  0  0  0  0  0  0  0  0
    3.3130    4.1520   -9.6190 C   0  0  0  0  0  1  0  0  0  0  0  0
  1 14  1  6  0  0  0
  1  8  1  0  0  0  0
  2  3  1  0  0  0  0
  2  1  1  0  0  0  0
  3  5  1  0  0  0  0
  4  3  2  0  0  0  0
  5 25  1  6  0  0  0
  5  6  1  0  0  0  0
  6  7  2  0  0  0  0
  8  6  1  0  0  0  0
  9  1  1  0  0  0  0
  9 13  1  0  0  0  0
 10  9  1  0  0  0  0
 11 10  1  0  0  0  0
 11 12  1  0  0  0  0
 12 13  1  0  0  0  0
 14 15  1  0  0  0  0
 15 19  1  0  0  0  0
 16 24  1  0  0  0  0
 16 21  1  0  0  0  0
 17 16  2  0  0  0  0
 18 17  1  0  0  0  0
 18 19  2  0  0  0  0
 19 20  1  0  0  0  0
 20 21  2  0  0  0  0
 21 22  1  0  0  0  0
 24 23  1  0  0  0  0
 25 26  1  0  0  0  0
 26 27  2  0  0  0  0
 28 27  1  0  0  0  0
 29 28  2  0  0  0  0
 30 29  1  0  0  0  0
 30 26  1  0  0  0  0
 31 30  1  0  0  0  0
M  END
>  <minimizedAffinity>
62.629673

$$$$

 OpenBabel09122223513D

 31 34  0  0  1  0  0  0  0  0999 V2000
    0.7720    6.1270   -7.1260 C   0  0  1  0  0  0  0  0  0  0  0  0
    0.9980    7.1960   -8.1820 C   0  0  0  0  0  2  0  0  0  0  0  0
    0.1410    6.8800   -9.3580 C   0  0  0  0  0  0  0  0  0  0  0  0
    0.6240    6.8210  -10.4930 O   0  0  0  0  0  0  0  0  0  0  0  0
   -1.3010    6.6610   -9.0540 C   0  0  2  0  0  3  0  0  0  0  0  0
   -1.6540    6.2040   -7.8150 C   0  0  0  0  0  0  0  0  0  0  0  0
   -2.8380    5.9440   -7.4470 O   0  0  0  0  0  0  0  0  0  0  0  0
   -0.6420    5.9860   -6.8740 O   0  0  0  0  0  0  0  0  0  0  0  0
    1.3470    4.7000   -7.4280 C   0  0  0  0  0  3  0  0  0  0  0  0
    2.7690    4.6270   -8.0090 C   0  0  0  0  0  2  0  0  0  0  0  0
    3.1040    3.1480   -7.9180 C   0  0  0  0  0  2  0  0  0  0  0  0
    2.5880    2.7620   -6.5440 C   0  0  0  0  0  2  0  0  0  0  0  0
    1.3820    3.6700   -6.2810 C   0  0  0  0  0  2  0  0  0  0  0  0
    1.2810    6.6450   -5.7400 C   0  0  0  0  0  2  0  0  0  0  0  0
    2.2280    5.7870   -4.8950 C   0  0  0  0  0  2  0  0  0  0  0  0
    6.3500    7.0630   -4.7520 C   0  0  0  0  0  0  0  0  0  0  0  0
    5.3240    7.9890   -4.5590 C   0  0  0  0  0  3  0  0  0  0  0  0
    3.9920    7.5710   -4.5990 C   0  0  0  0  0  3  0  0  0  0  0  0
    3.6700    6.2260   -4.8310 C   0  0  0  0  0  0  0  0  0  0  0  0
    4.7100    5.3090   -5.0540 C   0  0  0  0  0  3  0  0  0  0  0  0
    6.0440    5.7270   -5.0220 C   0  0  0  0  0  0  0  0  0  0  0  0
    7.2850    4.5640   -5.3200 Cl  0  0  0  0  0  0  0  0  0  0  0  0
    7.7750    8.7320   -5.4380 C   0  0  0  0  0  1  0  0  0  0  0  0
    7.6540    7.4880   -4.7480 O   0  0  0  0  0  0  0  0  0  0  0  0
   -2.4370    6.9170  -10.3600 S   0  0  0  0  0  0  0  0  0  0  0  0
   -2.5520    8.6400  -10.2970 C   0  0  0  0  0  0  0  0  0  0  0  0
   -1.5730    9.5190  -10.3040 N   0  0  0  0  0  0  0  0  0  0  0  0
   -2.1380   10.7780  -10.2290 N   0  0  0  0  0  0  0  0  0  0  0  0
   -3.4410   10.6210  -10.1810 C   0  0  0  0  0  3  0  0  0  0  0  0
   -3.7460    9.2940  -10.2100 N   0  0  0  0  0  0  0  0  0  0  0  0
   -5.0670    8.7290  -10.1880 C   0  0  0  0  0  1  0  0  0  0  0  0
  1  8  1  0  0  0  0
  1 14  1  1  0  0  0
  2  1  1  0  0  0  0
  3  5  1  0  0  0  0
  3  2  1  0  0  0  0
  4  3  2  0  0  0  0
  5 25  1  6  0  0  0
  5  6  1  0  0  0  0
  6  7  2  0  0  0  0
  6  8  1  0  0  0  0
  9  1  1  0  0  0  0
  9 13  1  0  0  0  0
 10 11  1  0  0  0  0
 10  9  1  0  0  0  0
 11 12  1  0  0  0  0
 12 13  1  0  0  0  0
 14 15  1  0  0  0  0
 15 19  1  0  0  0  0
 16 24  1  0  0  0  0
 16 17  1  0  0  0  0
 18 17  2  0  0  0  0
 19 18  1  0  0  0  0
 20 21  1  0  0  0  0
 20 19  2  0  0  0  0
 21 16  2  0  0  0  0
 22 21  1  0  0  0  0
 23 24  1  0  0  0  0
 25 26  1  0  0  0  0
 26 30  1  0  0  0  0
 27 26  2  0  0  0  0
 27 28  1  0  0  0  0
 28 29  2  0  0  0  0
 30 31  1  0  0  0  0
 30 29  1  0  0  0  0
M  END
>  <minimizedAffinity>
63.4587021

$$$$

 OpenBabel09122223513D

 31 34  0  0  1  0  0  0  0  0999 V2000
   -2.4200    1.1890   -4.8260 C   0  0  1  0  0  0  0  0  0  0  0  0
   -1.2330    1.4460   -5.7380 C   0  0  0  0  0  2  0  0  0  0  0  0
   -1.7490    1.8120   -7.0860 C   0  0  0  0  0  0  0  0  0  0  0  0
   -1.3500    1.2240   -8.0960 O   0  0  0  0  0  0  0  0  0  0  0  0
   -2.7460    2.9200   -7.1060 C   0  0  2  0  0  3  0  0  0  0  0  0
   -3.5230    3.1300   -6.0010 C   0  0  0  0  0  0  0  0  0  0  0  0
   -4.4280    4.0110   -5.9070 O   0  0  0  0  0  0  0  0  0  0  0  0
   -3.3290    2.3080   -4.8850 O   0  0  0  0  0  0  0  0  0  0  0  0
   -3.2520   -0.1140   -5.0930 C   0  0  0  0  0  3  0  0  0  0  0  0
   -2.8100   -1.3890   -4.3560 C   0  0  0  0  0  2  0  0  0  0  0  0
   -3.9560   -2.3520   -4.6150 C   0  0  0  0  0  2  0  0  0  0  0  0
   -5.1860   -1.4840   -4.4180 C   0  0  0  0  0  2  0  0  0  0  0  0
   -4.7730   -0.0720   -4.8460 C   0  0  0  0  0  2  0  0  0  0  0  0
   -1.9550    1.2490   -3.3320 C   0  0  0  0  0  2  0  0  0  0  0  0
   -1.7580    2.6000   -2.6390 C   0  0  0  0  0  2  0  0  0  0  0  0
   -4.1290    3.3700    0.8850 C   0  0  0  0  0  0  0  0  0  0  0  0
   -3.4220    4.4080    0.2770 C   0  0  0  0  0  3  0  0  0  0  0  0
   -2.6620    4.1570   -0.8670 C   0  0  0  0  0  3  0  0  0  0  0  0
   -2.6000    2.8680   -1.4170 C   0  0  0  0  0  0  0  0  0  0  0  0
   -3.2910    1.8260   -0.7790 C   0  0  0  0  0  3  0  0  0  0  0  0
   -4.0460    2.0730    0.3720 C   0  0  0  0  0  0  0  0  0  0  0  0
   -4.8630    0.7540    1.1290 Cl  0  0  0  0  0  0  0  0  0  0  0  0
   -4.9280    5.0230    2.2700 C   0  0  0  0  0  1  0  0  0  0  0  0
   -4.8430    3.6180    2.0290 O   0  0  0  0  0  0  0  0  0  0  0  0
   -2.9130    3.8130   -8.6010 S   0  0  0  0  0  0  0  0  0  0  0  0
   -1.8320    5.1190   -8.2680 C   0  0  0  0  0  0  0  0  0  0  0  0
   -0.7520    5.1080   -7.5180 N   0  0  0  0  0  0  0  0  0  0  0  0
   -0.2140    6.3800   -7.5340 N   0  0  0  0  0  0  0  0  0  0  0  0
   -0.9850    7.1210   -8.2960 C   0  0  0  0  0  3  0  0  0  0  0  0
   -2.0210    6.3750   -8.7690 N   0  0  0  0  0  0  0  0  0  0  0  0
   -3.0640    6.8320   -9.6450 C   0  0  0  0  0  1  0  0  0  0  0  0
  1 14  1  1  0  0  0
  2  1  1  0  0  0  0
  3  2  1  0  0  0  0
  4  3  2  0  0  0  0
  5 25  1  6  0  0  0
  5  3  1  0  0  0  0
  5  6  1  0  0  0  0
  6  7  2  0  0  0  0
  6  8  1  0  0  0  0
  8  1  1  0  0  0  0
  9 13  1  0  0  0  0
  9  1  1  0  0  0  0
  9 10  1  0  0  0  0
 11 12  1  0  0  0  0
 11 10  1  0  0  0  0
 13 12  1  0  0  0  0
 14 15  1  0  0  0  0
 15 19  1  0  0  0  0
 16 24  1  0  0  0  0
 17 16  2  0  0  0  0
 18 17  1  0  0  0  0
 19 18  2  0  0  0  0
 19 20  1  0  0  0  0
 20 21  2  0  0  0  0
 21 16  1  0  0  0  0
 21 22  1  0  0  0  0
 24 23  1  0  0  0  0
 25 26  1  0  0  0  0
 26 27  2  0  0  0  0
 28 27  1  0  0  0  0
 29 28  2  0  0  0  0
 30 29  1  0  0  0  0
 30 26  1  0  0  0  0
 31 30  1  0  0  0  0
M  END
>  <minimizedAffinity>
63.5598183

$$$$

 OpenBabel09122223513D

 31 34  0  0  1  0  0  0  0  0999 V2000
    0.7770    6.2410   -7.0160 C   0  0  1  0  0  0  0  0  0  0  0  0
    1.0580    7.3400   -8.0260 C   0  0  0  0  0  2  0  0  0  0  0  0
    0.2580    7.0650   -9.2510 C   0  0  0  0  0  0  0  0  0  0  0  0
    0.7950    7.0380  -10.3630 O   0  0  0  0  0  0  0  0  0  0  0  0
   -1.1990    6.8440   -9.0240 C   0  0  2  0  0  3  0  0  0  0  0  0
   -1.6120    6.3520   -7.8190 C   0  0  0  0  0  0  0  0  0  0  0  0
   -2.8140    6.0860   -7.5160 O   0  0  0  0  0  0  0  0  0  0  0  0
   -0.6480    6.0990   -6.8360 O   0  0  0  0  0  0  0  0  0  0  0  0
    1.3610    4.8200   -7.3330 C   0  0  0  0  0  3  0  0  0  0  0  0
    2.6720    4.7660   -8.1350 C   0  0  0  0  0  2  0  0  0  0  0  0
    3.0840    3.3080   -8.0230 C   0  0  0  0  0  2  0  0  0  0  0  0
    2.8170    2.9850   -6.5650 C   0  0  0  0  0  2  0  0  0  0  0  0
    1.6280    3.8610   -6.1560 C   0  0  0  0  0  2  0  0  0  0  0  0
    1.2210    6.7140   -5.5910 C   0  0  0  0  0  2  0  0  0  0  0  0
    2.1200    7.9430   -5.4310 C   0  0  0  0  0  2  0  0  0  0  0  0
    6.3320    7.2300   -4.8110 C   0  0  0  0  0  0  0  0  0  0  0  0
    5.3870    6.3670   -4.2540 C   0  0  0  0  0  3  0  0  0  0  0  0
    4.0250    6.5980   -4.4630 C   0  0  0  0  0  3  0  0  0  0  0  0
    3.5930    7.6890   -5.2300 C   0  0  0  0  0  0  0  0  0  0  0  0
    4.5510    8.5670   -5.7590 C   0  0  0  0  0  3  0  0  0  0  0  0
    5.9150    8.3430   -5.5450 C   0  0  0  0  0  0  0  0  0  0  0  0
    7.0540    9.4620   -6.2020 Cl  0  0  0  0  0  0  0  0  0  0  0  0
    8.1120    7.8280   -3.4830 C   0  0  0  0  0  1  0  0  0  0  0  0
    7.6650    7.0170   -4.5700 O   0  0  0  0  0  0  0  0  0  0  0  0
   -2.2690    7.1450  -10.3750 S   0  0  0  0  0  0  0  0  0  0  0  0
   -2.4750    8.8510  -10.1930 C   0  0  0  0  0  0  0  0  0  0  0  0
   -1.5460    9.7680  -10.0250 N   0  0  0  0  0  0  0  0  0  0  0  0
   -2.1770   10.9920   -9.9150 N   0  0  0  0  0  0  0  0  0  0  0  0
   -3.4680   10.7780  -10.0230 C   0  0  0  0  0  3  0  0  0  0  0  0
   -3.7030    9.4470  -10.1880 N   0  0  0  0  0  0  0  0  0  0  0  0
   -4.9890    8.8280  -10.3540 C   0  0  0  0  0  1  0  0  0  0  0  0
  1  8  1  0  0  0  0
  1 14  1  1  0  0  0
  2  1  1  0  0  0  0
  3  5  1  0  0  0  0
  3  2  1  0  0  0  0
  4  3  2  0  0  0  0
  5 25  1  6  0  0  0
  5  6  1  0  0  0  0
  6  7  2  0  0  0  0
  6  8  1  0  0  0  0
  9  1  1  0  0  0  0
  9 13  1  0  0  0  0
 10 11  1  0  0  0  0
 10  9  1  0  0  0  0
 11 12  1  0  0  0  0
 12 13  1  0  0  0  0
 14 15  1  0  0  0  0
 15 19  1  0  0  0  0
 16 24  1  0  0  0  0
 16 17  1  0  0  0  0
 18 17  2  0  0  0  0
 19 18  1  0  0  0  0
 20 21  1  0  0  0  0
 20 19  2  0  0  0  0
 21 16  2  0  0  0  0
 22 21  1  0  0  0  0
 24 23  1  0  0  0  0
 25 26  1  0  0  0  0
 26 30  1  0  0  0  0
 26 27  2  0  0  0  0
 27 28  1  0  0  0  0
 29 28  2  0  0  0  0
 30 29  1  0  0  0  0
 31 30  1  0  0  0  0
M  END
>  <minimizedAffinity>
63.5607033

$$$$

 OpenBabel09122223513D

 31 34  0  0  1  0  0  0  0  0999 V2000
   -1.0360    7.1810   -8.8970 C   0  0  1  0  0  0  0  0  0  0  0  0
   -1.5930    6.9450   -7.5040 C   0  0  0  0  0  2  0  0  0  0  0  0
   -2.7660    6.0350   -7.6180 C   0  0  0  0  0  0  0  0  0  0  0  0
   -3.8500    6.3350   -7.1070 O   0  0  0  0  0  0  0  0  0  0  0  0
   -2.5200    4.7690   -8.3660 C   0  0  2  0  0  3  0  0  0  0  0  0
   -1.5490    4.7480   -9.3270 C   0  0  0  0  0  0  0  0  0  0  0  0
   -1.2700    3.7490  -10.0550 O   0  0  0  0  0  0  0  0  0  0  0  0
   -0.8080    5.9140   -9.5500 O   0  0  0  0  0  0  0  0  0  0  0  0
   -1.8960    8.0660   -9.8650 C   0  0  0  0  0  3  0  0  0  0  0  0
   -3.3960    7.7440   -9.9600 C   0  0  0  0  0  2  0  0  0  0  0  0
   -3.9540    8.9240  -10.7360 C   0  0  0  0  0  2  0  0  0  0  0  0
   -3.2480   10.1130  -10.1110 C   0  0  0  0  0  2  0  0  0  0  0  0
   -1.8760    9.5950   -9.6660 C   0  0  0  0  0  2  0  0  0  0  0  0
    0.4230    7.7380   -8.7900 C   0  0  0  0  0  2  0  0  0  0  0  0
    1.5510    7.1120   -9.6150 C   0  0  0  0  0  2  0  0  0  0  0  0
    3.0900    3.3150   -8.2550 C   0  0  0  0  0  0  0  0  0  0  0  0
    3.4100    3.7830   -9.5300 C   0  0  0  0  0  3  0  0  0  0  0  0
    2.9160    5.0160   -9.9640 C   0  0  0  0  0  3  0  0  0  0  0  0
    2.0990    5.7930   -9.1300 C   0  0  0  0  0  0  0  0  0  0  0  0
    1.7590    5.2980   -7.8610 C   0  0  0  0  0  3  0  0  0  0  0  0
    2.2450    4.0600   -7.4280 C   0  0  0  0  0  0  0  0  0  0  0  0
    1.7840    3.4870   -5.8660 Cl  0  0  0  0  0  0  0  0  0  0  0  0
    3.6510    1.2010   -8.9660 C   0  0  0  0  0  1  0  0  0  0  0  0
    3.5490    2.0870   -7.8510 O   0  0  0  0  0  0  0  0  0  0  0  0
   -3.5780    3.4200   -8.0160 S   0  0  0  0  0  0  0  0  0  0  0  0
   -2.4730    2.4190   -7.1420 C   0  0  0  0  0  0  0  0  0  0  0  0
   -1.2840    2.0000   -7.5190 N   0  0  0  0  0  0  0  0  0  0  0  0
   -0.7720    1.2170   -6.5020 N   0  0  0  0  0  0  0  0  0  0  0  0
   -1.6660    1.1900   -5.5400 C   0  0  0  0  0  3  0  0  0  0  0  0
   -2.7550    1.9210   -5.9030 N   0  0  0  0  0  0  0  0  0  0  0  0
   -3.9330    2.1370   -5.1080 C   0  0  0  0  0  1  0  0  0  0  0  0
  1 14  1  1  0  0  0
  1  2  1  0  0  0  0
  3  2  1  0  0  0  0
  3  4  2  0  0  0  0
  5 25  1  6  0  0  0
  5  3  1  0  0  0  0
  6  5  1  0  0  0  0
  7  6  2  0  0  0  0
  8  6  1  0  0  0  0
  8  1  1  0  0  0  0
  9 13  1  0  0  0  0
  9  1  1  0  0  0  0
 10  9  1  0  0  0  0
 11 12  1  0  0  0  0
 11 10  1  0  0  0  0
 12 13  1  0  0  0  0
 15 19  1  0  0  0  0
 15 14  1  0  0  0  0
 16 24  1  0  0  0  0
 16 21  1  0  0  0  0
 17 16  2  0  0  0  0
 18 17  1  0  0  0  0
 18 19  2  0  0  0  0
 19 20  1  0  0  0  0
 20 21  2  0  0  0  0
 21 22  1  0  0  0  0
 23 24  1  0  0  0  0
 25 26  1  0  0  0  0
 26 30  1  0  0  0  0
 27 26  2  0  0  0  0
 27 28  1  0  0  0  0
 28 29  2  0  0  0  0
 30 29  1  0  0  0  0
 30 31  1  0  0  0  0
M  END
>  <minimizedAffinity>
63.5943375

$$$$
