
 OpenBabel09132204463D

 31 34  0  0  1  0  0  0  0  0999 V2000
   -1.5500    7.4780   -9.4430 C   0  0  1  0  0  0  0  0  0  0  0  0
   -2.3700    7.4970  -10.7210 C   0  0  0  0  0  2  0  0  0  0  0  0
   -3.6040    8.2940  -10.4730 C   0  0  0  0  0  0  0  0  0  0  0  0
   -4.7180    7.8320  -10.7380 O   0  0  0  0  0  0  0  0  0  0  0  0
   -3.3790    9.6550   -9.9070 C   0  0  2  0  0  3  0  0  0  0  0  0
   -2.2610    9.8820   -9.1550 C   0  0  0  0  0  0  0  0  0  0  0  0
   -1.9770   10.9790   -8.5900 O   0  0  0  0  0  0  0  0  0  0  0  0
   -1.3590    8.8280   -8.9680 O   0  0  0  0  0  0  0  0  0  0  0  0
   -2.1120    6.6280   -8.2510 C   0  0  0  0  0  3  0  0  0  0  0  0
   -3.6410    6.5620   -8.1010 C   0  0  0  0  0  2  0  0  0  0  0  0
   -3.8380    5.4720   -7.0610 C   0  0  0  0  0  2  0  0  0  0  0  0
   -2.8500    4.4030   -7.4900 C   0  0  0  0  0  2  0  0  0  0  0  0
   -1.6820    5.1520   -8.1400 C   0  0  0  0  0  2  0  0  0  0  0  0
   -0.0780    7.0590   -9.7730 C   0  0  0  0  0  2  0  0  0  0  0  0
    0.9910    7.0670   -8.6770 C   0  0  0  0  0  2  0  0  0  0  0  0
    3.0330    3.3280   -7.9750 C   0  0  0  0  0  0  0  0  0  0  0  0
    3.3030    4.0670   -9.1270 C   0  0  0  0  0  3  0  0  0  0  0  0
    2.6460    5.2800   -9.3470 C   0  0  0  0  0  3  0  0  0  0  0  0
    1.7140    5.7680   -8.4200 C   0  0  0  0  0  0  0  0  0  0  0  0
    1.4280    5.0010   -7.2790 C   0  0  0  0  0  3  0  0  0  0  0  0
    2.0790    3.7820   -7.0610 C   0  0  0  0  0  0  0  0  0  0  0  0
    1.6790    2.8680   -5.6520 Cl  0  0  0  0  0  0  0  0  0  0  0  0
    3.5810    1.3290   -8.9700 C   0  0  0  0  0  1  0  0  0  0  0  0
    3.6560    2.1220   -7.7850 O   0  0  0  0  0  0  0  0  0  0  0  0
   -4.6340   10.8440  -10.1750 S   0  0  0  0  0  0  0  0  0  0  0  0
   -5.9410   10.0600   -9.3610 C   0  0  0  0  0  0  0  0  0  0  0  0
   -6.2650    8.7850   -9.3880 N   0  0  0  0  0  0  0  0  0  0  0  0
   -7.3860    8.6190   -8.5960 N   0  0  0  0  0  0  0  0  0  0  0  0
   -7.7020    9.7990   -8.1130 C   0  0  0  0  0  3  0  0  0  0  0  0
   -6.8290   10.7350   -8.5760 N   0  0  0  0  0  0  0  0  0  0  0  0
   -6.8430   12.1360   -8.2570 C   0  0  0  0  0  1  0  0  0  0  0  0
  1 14  1  6  0  0  0
  1  8  1  0  0  0  0
  1  9  1  0  0  0  0
  2  3  1  0  0  0  0
  2  1  1  0  0  0  0
  3  5  1  0  0  0  0
  4  3  2  0  0  0  0
  5 25  1  1  0  0  0
  5  6  1  0  0  0  0
  6  8  1  0  0  0  0
  6  7  2  0  0  0  0
  9 13  1  0  0  0  0
  9 10  1  0  0  0  0
 10 11  1  0  0  0  0
 12 11  1  0  0  0  0
 13 12  1  0  0  0  0
 14 15  1  0  0  0  0
 15 19  1  0  0  0  0
 16 24  1  0  0  0  0
 16 21  1  0  0  0  0
 17 16  2  0  0  0  0
 18 17  1  0  0  0  0
 18 19  2  0  0  0  0
 19 20  1  0  0  0  0
 20 21  2  0  0  0  0
 21 22  1  0  0  0  0
 23 24  1  0  0  0  0
 25 26  1  0  0  0  0
 26 30  1  0  0  0  0
 27 26  2  0  0  0  0
 27 28  1  0  0  0  0
 28 29  2  0  0  0  0
 30 31  1  0  0  0  0
 30 29  1  0  0  0  0
M  END
>  <minimizedAffinity>
61.4266167

$$$$
