
 OpenBabel09132204463D

 31 34  0  0  1  0  0  0  0  0999 V2000
    0.7770    6.2410   -7.0160 C   0  0  1  0  0  0  0  0  0  0  0  0
    1.0580    7.3400   -8.0260 C   0  0  0  0  0  2  0  0  0  0  0  0
    0.2580    7.0650   -9.2510 C   0  0  0  0  0  0  0  0  0  0  0  0
    0.7950    7.0380  -10.3630 O   0  0  0  0  0  0  0  0  0  0  0  0
   -1.1990    6.8440   -9.0240 C   0  0  2  0  0  3  0  0  0  0  0  0
   -1.6120    6.3520   -7.8190 C   0  0  0  0  0  0  0  0  0  0  0  0
   -2.8140    6.0860   -7.5160 O   0  0  0  0  0  0  0  0  0  0  0  0
   -0.6480    6.0990   -6.8360 O   0  0  0  0  0  0  0  0  0  0  0  0
    1.3610    4.8200   -7.3330 C   0  0  0  0  0  3  0  0  0  0  0  0
    2.6720    4.7660   -8.1350 C   0  0  0  0  0  2  0  0  0  0  0  0
    3.0840    3.3080   -8.0230 C   0  0  0  0  0  2  0  0  0  0  0  0
    2.8170    2.9850   -6.5650 C   0  0  0  0  0  2  0  0  0  0  0  0
    1.6280    3.8610   -6.1560 C   0  0  0  0  0  2  0  0  0  0  0  0
    1.2210    6.7140   -5.5910 C   0  0  0  0  0  2  0  0  0  0  0  0
    2.1200    7.9430   -5.4310 C   0  0  0  0  0  2  0  0  0  0  0  0
    6.3320    7.2300   -4.8110 C   0  0  0  0  0  0  0  0  0  0  0  0
    5.3870    6.3670   -4.2540 C   0  0  0  0  0  3  0  0  0  0  0  0
    4.0250    6.5980   -4.4630 C   0  0  0  0  0  3  0  0  0  0  0  0
    3.5930    7.6890   -5.2300 C   0  0  0  0  0  0  0  0  0  0  0  0
    4.5510    8.5670   -5.7590 C   0  0  0  0  0  3  0  0  0  0  0  0
    5.9150    8.3430   -5.5450 C   0  0  0  0  0  0  0  0  0  0  0  0
    7.0540    9.4620   -6.2020 Cl  0  0  0  0  0  0  0  0  0  0  0  0
    8.1120    7.8280   -3.4830 C   0  0  0  0  0  1  0  0  0  0  0  0
    7.6650    7.0170   -4.5700 O   0  0  0  0  0  0  0  0  0  0  0  0
   -2.2690    7.1450  -10.3750 S   0  0  0  0  0  0  0  0  0  0  0  0
   -2.4750    8.8510  -10.1930 C   0  0  0  0  0  0  0  0  0  0  0  0
   -1.5460    9.7680  -10.0250 N   0  0  0  0  0  0  0  0  0  0  0  0
   -2.1770   10.9920   -9.9150 N   0  0  0  0  0  0  0  0  0  0  0  0
   -3.4680   10.7780  -10.0230 C   0  0  0  0  0  3  0  0  0  0  0  0
   -3.7030    9.4470  -10.1880 N   0  0  0  0  0  0  0  0  0  0  0  0
   -4.9890    8.8280  -10.3540 C   0  0  0  0  0  1  0  0  0  0  0  0
  1  8  1  0  0  0  0
  1 14  1  1  0  0  0
  2  1  1  0  0  0  0
  3  5  1  0  0  0  0
  3  2  1  0  0  0  0
  4  3  2  0  0  0  0
  5 25  1  6  0  0  0
  5  6  1  0  0  0  0
  6  7  2  0  0  0  0
  6  8  1  0  0  0  0
  9  1  1  0  0  0  0
  9 13  1  0  0  0  0
 10 11  1  0  0  0  0
 10  9  1  0  0  0  0
 11 12  1  0  0  0  0
 12 13  1  0  0  0  0
 14 15  1  0  0  0  0
 15 19  1  0  0  0  0
 16 24  1  0  0  0  0
 16 17  1  0  0  0  0
 18 17  2  0  0  0  0
 19 18  1  0  0  0  0
 20 21  1  0  0  0  0
 20 19  2  0  0  0  0
 21 16  2  0  0  0  0
 22 21  1  0  0  0  0
 24 23  1  0  0  0  0
 25 26  1  0  0  0  0
 26 30  1  0  0  0  0
 26 27  2  0  0  0  0
 27 28  1  0  0  0  0
 29 28  2  0  0  0  0
 30 29  1  0  0  0  0
 31 30  1  0  0  0  0
M  END
>  <minimizedAffinity>
63.5607033

$$$$
