
 OpenBabel09132204463D

 31 34  0  0  1  0  0  0  0  0999 V2000
   -1.9160    7.3640   -9.4160 C   0  0  1  0  0  0  0  0  0  0  0  0
   -0.9900    6.4090  -10.1500 C   0  0  0  0  0  2  0  0  0  0  0  0
    0.4150    6.7850   -9.8330 C   0  0  0  0  0  0  0  0  0  0  0  0
    1.2380    6.9720  -10.7360 O   0  0  0  0  0  0  0  0  0  0  0  0
    0.7320    6.8990   -8.3810 C   0  0  2  0  0  3  0  0  0  0  0  0
   -0.2690    7.2220   -7.5100 C   0  0  0  0  0  0  0  0  0  0  0  0
   -0.1210    7.3850   -6.2620 O   0  0  0  0  0  0  0  0  0  0  0  0
   -1.5600    7.4070   -8.0180 O   0  0  0  0  0  0  0  0  0  0  0  0
   -1.9700    8.8420   -9.9400 C   0  0  0  0  0  3  0  0  0  0  0  0
   -3.2760    9.2980  -10.6110 C   0  0  0  0  0  2  0  0  0  0  0  0
   -3.0920   10.8000  -10.7380 C   0  0  0  0  0  2  0  0  0  0  0  0
   -2.4940   11.1890   -9.3980 C   0  0  0  0  0  2  0  0  0  0  0  0
   -1.6700    9.9800   -8.9440 C   0  0  0  0  0  2  0  0  0  0  0  0
   -3.3540    6.7500   -9.3480 C   0  0  0  0  0  2  0  0  0  0  0  0
   -3.8890    6.1810   -8.0310 C   0  0  0  0  0  2  0  0  0  0  0  0
   -2.4640    2.2650   -6.9040 C   0  0  0  0  0  0  0  0  0  0  0  0
   -1.7870    3.0030   -7.8750 C   0  0  0  0  0  3  0  0  0  0  0  0
   -2.2460    4.2730   -8.2320 C   0  0  0  0  0  3  0  0  0  0  0  0
   -3.3850    4.8190   -7.6230 C   0  0  0  0  0  0  0  0  0  0  0  0
   -4.0760    4.0540   -6.6690 C   0  0  0  0  0  3  0  0  0  0  0  0
   -3.6220    2.7790   -6.3170 C   0  0  0  0  0  0  0  0  0  0  0  0
   -4.5170    1.8720   -5.1520 Cl  0  0  0  0  0  0  0  0  0  0  0  0
   -0.6220    1.0120   -6.3300 C   0  0  0  0  0  1  0  0  0  0  0  0
   -2.0270    1.0040   -6.5870 O   0  0  0  0  0  0  0  0  0  0  0  0
    2.4070    6.7030   -7.9150 S   0  0  0  0  0  0  0  0  0  0  0  0
    2.3760    5.0380   -7.4550 C   0  0  0  0  0  0  0  0  0  0  0  0
    1.9760    4.5180   -6.3140 N   0  0  0  0  0  0  0  0  0  0  0  0
    2.1420    3.1490   -6.3930 N   0  0  0  0  0  0  0  0  0  0  0  0
    2.6340    2.8820   -7.5820 C   0  0  0  0  0  3  0  0  0  0  0  0
    2.8080    4.0390   -8.2780 N   0  0  0  0  0  0  0  0  0  0  0  0
    3.3130    4.1520   -9.6190 C   0  0  0  0  0  1  0  0  0  0  0  0
  1 14  1  6  0  0  0
  1  8  1  0  0  0  0
  2  3  1  0  0  0  0
  2  1  1  0  0  0  0
  3  5  1  0  0  0  0
  4  3  2  0  0  0  0
  5 25  1  6  0  0  0
  5  6  1  0  0  0  0
  6  7  2  0  0  0  0
  8  6  1  0  0  0  0
  9  1  1  0  0  0  0
  9 13  1  0  0  0  0
 10  9  1  0  0  0  0
 11 10  1  0  0  0  0
 11 12  1  0  0  0  0
 12 13  1  0  0  0  0
 14 15  1  0  0  0  0
 15 19  1  0  0  0  0
 16 24  1  0  0  0  0
 16 21  1  0  0  0  0
 17 16  2  0  0  0  0
 18 17  1  0  0  0  0
 18 19  2  0  0  0  0
 19 20  1  0  0  0  0
 20 21  2  0  0  0  0
 21 22  1  0  0  0  0
 24 23  1  0  0  0  0
 25 26  1  0  0  0  0
 26 27  2  0  0  0  0
 28 27  1  0  0  0  0
 29 28  2  0  0  0  0
 30 29  1  0  0  0  0
 30 26  1  0  0  0  0
 31 30  1  0  0  0  0
M  END
>  <minimizedAffinity>
62.629673

$$$$
