
 OpenBabel09132204463D

 34 37  0  0  1  0  0  0  0  0999 V2000
   -4.7550    1.5480    2.0680 N   0  0  0  0  0  0  0  0  0  0  0  0
   -4.5620    2.8740    1.6560 C   0  0  0  0  0  0  0  0  0  0  0  0
   -3.6920    3.2680    0.8810 O   0  0  0  0  0  0  0  0  0  0  0  0
   -3.6210    0.7480    2.2660 C   0  0  0  0  0  0  0  0  0  0  0  0
   -3.6390   -0.5650    2.2880 N   0  0  0  0  0  0  0  0  0  0  0  0
   -2.3860   -1.0460    2.6290 C   0  0  0  0  0  3  0  0  0  0  0  0
   -1.4400   -0.0900    2.9140 C   0  0  0  0  0  0  0  0  0  0  0  0
   -2.1190    1.4620    2.7100 S   0  0  0  0  0  0  0  0  0  0  0  0
   -7.2920   -1.2840    0.3310 C   0  0  1  0  0  3  0  0  0  0  0  0
   -7.0060    0.1050   -0.2730 C   0  0  0  0  0  2  0  0  0  0  0  0
   -6.8730    1.2550    0.7230 C   0  0  0  0  0  2  0  0  0  0  0  0
   -6.1200    0.9610    2.0340 C   0  0  1  0  0  3  0  0  0  0  0  0
   -6.1950   -0.4900    2.5370 C   0  0  0  0  0  2  0  0  0  0  0  0
   -6.2890   -1.5640    1.4650 C   0  0  0  0  0  2  0  0  0  0  0  0
   -9.6090   -2.0930   -0.6030 C   0  0  0  0  0  1  0  0  0  0  0  0
   -8.8120   -1.6090    0.6180 C   0  0  0  0  0  0  0  0  0  0  0  0
   -9.5390   -0.3770    1.2020 C   0  0  0  0  0  1  0  0  0  0  0  0
   -8.8950   -2.7260    1.6900 C   0  0  0  0  0  1  0  0  0  0  0  0
   -5.5140    3.9000    2.1620 C   0  0  0  0  0  0  0  0  0  0  0  0
   -6.4130    3.5490    3.1760 C   0  0  0  0  0  3  0  0  0  0  0  0
   -7.3380    4.4850    3.6430 C   0  0  0  0  0  3  0  0  0  0  0  0
   -7.3640    5.7710    3.0990 C   0  0  0  0  0  0  0  0  0  0  0  0
   -6.4950    6.1120    2.0580 C   0  0  0  0  0  3  0  0  0  0  0  0
   -5.5700    5.1770    1.5880 C   0  0  0  0  0  3  0  0  0  0  0  0
   -8.3400    6.6180    3.5760 O   0  0  0  0  0  0  0  0  0  0  0  0
   -8.8710    7.5280    2.6920 C   0  0  0  0  0  0  0  0  0  0  0  0
   -9.1490    7.1970    1.3640 C   0  0  0  0  0  3  0  0  0  0  0  0
   -9.6450    8.1720    0.4990 C   0  0  0  0  0  3  0  0  0  0  0  0
   -9.8470    9.4750    0.9570 C   0  0  0  0  0  3  0  0  0  0  0  0
   -9.5470    9.8090    2.2780 C   0  0  0  0  0  3  0  0  0  0  0  0
   -9.0480    8.8360    3.1460 C   0  0  0  0  0  3  0  0  0  0  0  0
   -0.0630   -0.3980    3.3440 C   0  0  0  0  0  0  0  0  0  0  0  0
    0.8720   -0.1850    2.5150 O   0  0  0  0  0  0  0  0  0  0  0  0
    0.0690   -0.8430    4.5270 O   0  0  0  0  0  1  0  0  0  0  0  0
  1  4  1  0  0  0  0
  2  1  1  0  0  0  0
  2 19  1  0  0  0  0
  3  2  2  0  0  0  0
  4  5  2  0  0  0  0
  4  8  1  0  0  0  0
  5  6  1  0  0  0  0
  6  7  2  0  0  0  0
  7 32  1  0  0  0  0
  8  7  1  0  0  0  0
  9 16  1  1  0  0  0
  9 14  1  0  0  0  0
 10  9  1  0  0  0  0
 10 11  1  0  0  0  0
 11 12  1  0  0  0  0
 12  1  1  6  0  0  0
 12 13  1  0  0  0  0
 14 13  1  0  0  0  0
 15 16  1  0  0  0  0
 16 17  1  0  0  0  0
 16 18  1  0  0  0  0
 19 20  1  0  0  0  0
 20 21  2  0  0  0  0
 22 25  1  0  0  0  0
 22 21  1  0  0  0  0
 23 22  2  0  0  0  0
 24 23  1  0  0  0  0
 24 19  2  0  0  0  0
 26 31  1  0  0  0  0
 26 25  1  0  0  0  0
 27 26  2  0  0  0  0
 28 29  2  0  0  0  0
 28 27  1  0  0  0  0
 29 30  1  0  0  0  0
 30 31  2  0  0  0  0
 32 34  1  0  0  0  0
 33 32  2  0  0  0  0
M  END
>  <minimizedAffinity>
83.8697433

$$$$
