
 OpenBabel09132204463D

 30 33  0  0  0  0  0  0  0  0999 V2000
    5.1640   -7.5570    1.6090 N   0  0  0  0  0  0  0  0  0  0  0  0
    3.9800   -7.7810    0.9200 C   0  0  0  0  0  0  0  0  0  0  0  0
    4.0440   -7.0740   -0.2770 C   0  0  0  0  0  0  0  0  0  0  0  0
    5.2840   -6.3510   -0.2690 C   0  0  0  0  0  0  0  0  0  0  0  0
    5.9030   -5.4640   -1.1760 C   0  0  0  0  0  3  0  0  0  0  0  0
    7.1420   -4.8930   -0.8690 C   0  0  0  0  0  3  0  0  0  0  0  0
    7.7920   -5.1700    0.3360 C   0  0  0  0  0  0  0  0  0  0  0  0
    7.1750   -6.0380    1.2570 C   0  0  0  0  0  3  0  0  0  0  0  0
    5.9390   -6.6340    0.9330 C   0  0  0  0  0  0  0  0  0  0  0  0
    2.8980   -8.6300    1.4210 C   0  0  0  0  0  0  0  0  0  0  0  0
    2.1560   -8.2440    2.5360 C   0  0  0  0  0  3  0  0  0  0  0  0
    1.1460   -9.0840    2.9720 C   0  0  0  0  0  3  0  0  0  0  0  0
    0.8360  -10.2580    2.3820 N   0  0  0  0  0  0  0  0  0  0  0  0
    1.5770  -10.6100    1.3090 C   0  0  0  0  0  3  0  0  0  0  0  0
    2.6080   -9.8410    0.7960 C   0  0  0  0  0  3  0  0  0  0  0  0
    2.9810   -7.0590   -1.3550 C   0  0  0  0  0  3  0  0  0  0  0  0
    1.7880   -7.9720   -1.0250 C   0  0  0  0  0  2  0  0  0  0  0  0
    0.7470   -7.9580   -2.1430 C   0  0  0  0  0  2  0  0  0  0  0  0
    0.2930   -6.5380   -2.4720 C   0  0  0  0  0  2  0  0  0  0  0  0
    1.4740   -5.6360   -2.8140 C   0  0  0  0  0  2  0  0  0  0  0  0
    2.5220   -5.6330   -1.7020 C   0  0  0  0  0  2  0  0  0  0  0  0
    9.1480   -4.5530    0.6380 C   0  0  0  0  0  0  0  0  0  0  0  0
   10.0020   -4.5340   -0.3020 O   0  0  0  0  0  0  0  0  0  0  0  0
    9.3240   -4.0860    1.8090 O   0  0  0  0  0  1  0  0  0  0  0  0
    5.4980   -8.1900    2.8880 C   0  0  0  0  0  2  0  0  0  0  0  0
    5.9330  -11.9850    2.5220 C   0  0  0  0  0  1  0  0  0  0  0  0
    5.3200  -10.7040    2.8360 N   0  0  0  0  0  0  0  0  0  0  0  0
    3.8730  -10.7060    2.9630 C   0  0  0  0  0  1  0  0  0  0  0  0
    6.1230   -9.5720    2.8500 C   0  0  0  0  0  0  0  0  0  0  0  0
    7.3540   -9.6590    2.9380 O   0  0  0  0  0  0  0  0  0  0  0  0
  1 25  1  0  0  0  0
  2 10  1  0  0  0  0
  2  1  1  0  0  0  0
  3  4  1  0  0  0  0
  3  2  2  0  0  0  0
  4  9  1  0  0  0  0
  5  6  1  0  0  0  0
  5  4  2  0  0  0  0
  6  7  2  0  0  0  0
  7 22  1  0  0  0  0
  7  8  1  0  0  0  0
  9  8  2  0  0  0  0
  9  1  1  0  0  0  0
 10 11  1  0  0  0  0
 11 12  2  0  0  0  0
 13 12  1  0  0  0  0
 14 13  2  0  0  0  0
 15 14  1  0  0  0  0
 15 10  2  0  0  0  0
 16 17  1  0  0  0  0
 16  3  1  0  0  0  0
 18 17  1  0  0  0  0
 19 18  1  0  0  0  0
 20 19  1  0  0  0  0
 20 21  1  0  0  0  0
 21 16  1  0  0  0  0
 22 24  1  0  0  0  0
 23 22  2  0  0  0  0
 26 27  1  0  0  0  0
 27 29  1  0  0  0  0
 27 28  1  0  0  0  0
 29 25  1  0  0  0  0
 29 30  2  0  0  0  0
M  END
>  <minimizedAffinity>
19.4453354

$$$$
