
 OpenBabel09132204463D

 30 33  0  0  0  0  0  0  0  0999 V2000
    5.1400   -7.1600    0.0460 N   0  0  0  0  0  0  0  0  0  0  0  0
    4.5370   -8.3560    0.4120 C   0  0  0  0  0  0  0  0  0  0  0  0
    3.7370   -8.1050    1.5230 C   0  0  0  0  0  0  0  0  0  0  0  0
    3.9230   -6.7240    1.8690 C   0  0  0  0  0  0  0  0  0  0  0  0
    3.4060   -5.8950    2.8880 C   0  0  0  0  0  3  0  0  0  0  0  0
    3.8010   -4.5570    2.9740 C   0  0  0  0  0  3  0  0  0  0  0  0
    4.7170   -4.0080    2.0730 C   0  0  0  0  0  0  0  0  0  0  0  0
    5.2530   -4.8310    1.0640 C   0  0  0  0  0  3  0  0  0  0  0  0
    4.8330   -6.1740    0.9630 C   0  0  0  0  0  0  0  0  0  0  0  0
    4.7450   -9.6200   -0.2950 C   0  0  0  0  0  0  0  0  0  0  0  0
    3.9540  -10.7310   -0.0060 C   0  0  0  0  0  3  0  0  0  0  0  0
    4.1940  -11.9040   -0.7000 C   0  0  0  0  0  3  0  0  0  0  0  0
    5.1540  -12.0390   -1.6400 N   0  0  0  0  0  0  0  0  0  0  0  0
    5.9110  -10.9490   -1.8930 C   0  0  0  0  0  3  0  0  0  0  0  0
    5.7490   -9.7320   -1.2540 C   0  0  0  0  0  3  0  0  0  0  0  0
    2.8680   -9.1200    2.2360 C   0  0  0  0  0  3  0  0  0  0  0  0
    1.4170   -9.1180    1.7300 C   0  0  0  0  0  2  0  0  0  0  0  0
    0.5580  -10.1300    2.4870 C   0  0  0  0  0  2  0  0  0  0  0  0
    1.1670  -11.5300    2.4410 C   0  0  0  0  0  2  0  0  0  0  0  0
    2.6020  -11.5350    2.9570 C   0  0  0  0  0  2  0  0  0  0  0  0
    3.4750  -10.5330    2.2050 C   0  0  0  0  0  2  0  0  0  0  0  0
    5.1150   -2.5450    2.1750 C   0  0  0  0  0  0  0  0  0  0  0  0
    6.3570   -2.2770    2.1680 O   0  0  0  0  0  0  0  0  0  0  0  0
    4.1730   -1.6920    2.2460 O   0  0  0  0  0  1  0  0  0  0  0  0
    6.0060   -7.0080   -1.1260 C   0  0  0  0  0  2  0  0  0  0  0  0
    9.0750   -4.8320   -0.3700 C   0  0  0  0  0  1  0  0  0  0  0  0
    7.9920   -5.7820   -0.1730 N   0  0  0  0  0  0  0  0  0  0  0  0
    8.1380   -6.6870    0.9540 C   0  0  0  0  0  1  0  0  0  0  0  0
    6.9920   -5.8540   -1.1320 C   0  0  0  0  0  0  0  0  0  0  0  0
    6.8130   -4.9380   -1.9440 O   0  0  0  0  0  0  0  0  0  0  0  0
  1  2  1  0  0  0  0
  1  9  1  0  0  0  0
  2  3  2  0  0  0  0
  3  4  1  0  0  0  0
  3 16  1  0  0  0  0
  4  5  1  0  0  0  0
  5  6  2  0  0  0  0
  7 22  1  0  0  0  0
  7  6  1  0  0  0  0
  8  7  2  0  0  0  0
  9  8  1  0  0  0  0
  9  4  2  0  0  0  0
 10 11  1  0  0  0  0
 10  2  1  0  0  0  0
 12 11  2  0  0  0  0
 13 12  1  0  0  0  0
 14 13  2  0  0  0  0
 14 15  1  0  0  0  0
 15 10  2  0  0  0  0
 17 16  1  0  0  0  0
 17 18  1  0  0  0  0
 19 18  1  0  0  0  0
 19 20  1  0  0  0  0
 21 16  1  0  0  0  0
 21 20  1  0  0  0  0
 22 24  1  0  0  0  0
 23 22  2  0  0  0  0
 25  1  1  0  0  0  0
 26 27  1  0  0  0  0
 27 28  1  0  0  0  0
 29 25  1  0  0  0  0
 29 27  1  0  0  0  0
 30 29  2  0  0  0  0
M  END
>  <minimizedAffinity>
19.6896591

$$$$
