
 OpenBabel09132204463D

 30 33  0  0  0  0  0  0  0  0999 V2000
    4.5140   -6.2620   -0.4650 N   0  0  0  0  0  0  0  0  0  0  0  0
    4.8060   -7.2690    0.4460 C   0  0  0  0  0  0  0  0  0  0  0  0
    3.7820   -8.2080    0.3850 C   0  0  0  0  0  0  0  0  0  0  0  0
    2.8130   -7.7090   -0.5500 C   0  0  0  0  0  0  0  0  0  0  0  0
    1.5730   -8.1910   -1.0220 C   0  0  0  0  0  3  0  0  0  0  0  0
    0.8350   -7.4480   -1.9480 C   0  0  0  0  0  3  0  0  0  0  0  0
    1.2900   -6.2140   -2.4200 C   0  0  0  0  0  0  0  0  0  0  0  0
    2.5160   -5.7150   -1.9420 C   0  0  0  0  0  3  0  0  0  0  0  0
    3.2720   -6.4790   -1.0290 C   0  0  0  0  0  0  0  0  0  0  0  0
    6.0030   -7.2790    1.2890 C   0  0  0  0  0  0  0  0  0  0  0  0
    6.9050   -8.3400    1.2220 C   0  0  0  0  0  3  0  0  0  0  0  0
    8.0200   -8.3030    2.0420 C   0  0  0  0  0  3  0  0  0  0  0  0
    8.2850   -7.3010    2.9070 N   0  0  0  0  0  0  0  0  0  0  0  0
    7.3890   -6.2910    2.9570 C   0  0  0  0  0  3  0  0  0  0  0  0
    6.2450   -6.2350    2.1790 C   0  0  0  0  0  3  0  0  0  0  0  0
    3.7070   -9.4910    1.1850 C   0  0  0  0  0  3  0  0  0  0  0  0
    2.5190   -9.5130    2.1610 C   0  0  0  0  0  2  0  0  0  0  0  0
    2.4860  -10.8060    2.9740 C   0  0  0  0  0  2  0  0  0  0  0  0
    2.4950  -12.0380    2.0730 C   0  0  0  0  0  2  0  0  0  0  0  0
    3.6820  -12.0250    1.1150 C   0  0  0  0  0  2  0  0  0  0  0  0
    3.7240  -10.7400    0.2880 C   0  0  0  0  0  2  0  0  0  0  0  0
    0.4790   -5.4350   -3.4420 C   0  0  0  0  0  0  0  0  0  0  0  0
   -0.0680   -6.0960   -4.3790 O   0  0  0  0  0  0  0  0  0  0  0  0
    0.3940   -4.1760   -3.2760 O   0  0  0  0  0  1  0  0  0  0  0  0
    5.3980   -5.1260   -0.7370 C   0  0  0  0  0  2  0  0  0  0  0  0
    9.2000   -5.2660   -0.2370 C   0  0  0  0  0  1  0  0  0  0  0  0
    7.8340   -4.7700   -0.1930 N   0  0  0  0  0  0  0  0  0  0  0  0
    7.5690   -3.7230    0.7780 C   0  0  0  0  0  1  0  0  0  0  0  0
    6.8710   -5.4130   -0.9590 C   0  0  0  0  0  0  0  0  0  0  0  0
    7.1870   -6.1480   -1.9030 O   0  0  0  0  0  0  0  0  0  0  0  0
  1  2  1  0  0  0  0
  2 10  1  0  0  0  0
  3  2  2  0  0  0  0
  3 16  1  0  0  0  0
  4  3  1  0  0  0  0
  5  4  1  0  0  0  0
  6  5  2  0  0  0  0
  7  6  1  0  0  0  0
  7  8  2  0  0  0  0
  8  9  1  0  0  0  0
  9  4  2  0  0  0  0
  9  1  1  0  0  0  0
 10 15  1  0  0  0  0
 11 10  2  0  0  0  0
 11 12  1  0  0  0  0
 12 13  2  0  0  0  0
 13 14  1  0  0  0  0
 15 14  2  0  0  0  0
 16 17  1  0  0  0  0
 17 18  1  0  0  0  0
 19 18  1  0  0  0  0
 20 19  1  0  0  0  0
 21 20  1  0  0  0  0
 21 16  1  0  0  0  0
 22 24  1  0  0  0  0
 22  7  1  0  0  0  0
 23 22  2  0  0  0  0
 25  1  1  0  0  0  0
 26 27  1  0  0  0  0
 27 28  1  0  0  0  0
 29 25  1  0  0  0  0
 29 27  1  0  0  0  0
 30 29  2  0  0  0  0
M  END
>  <minimizedAffinity>
20.657814

$$$$
