11707129
  -OEChem-09172222053D

 84 90  0     0  0  0  0  0  0999 V2000
   -4.4036    0.7212   -3.4319 O   0  0  0  0  0  0  0  0  0  0  0  0
    4.3594   -3.3079    0.7275 O   0  0  0  0  0  0  0  0  0  0  0  0
    1.4092   -2.8986    1.7892 O   0  0  0  0  0  0  0  0  0  0  0  0
    7.6653    6.1365    0.4714 O   0  0  0  0  0  0  0  0  0  0  0  0
    9.1706    4.6617    1.3452 O   0  0  0  0  0  0  0  0  0  0  0  0
   -2.6723    0.5113   -1.0470 N   0  0  0  0  0  0  0  0  0  0  0  0
    1.3068   -2.8933   -0.5273 N   0  0  0  0  0  0  0  0  0  0  0  0
    3.6826   -1.5405   -0.6708 N   0  0  0  0  0  0  0  0  0  0  0  0
   -5.4134    2.7258   -0.5257 N   0  0  0  0  0  0  0  0  0  0  0  0
   -5.1558    0.4691    1.6960 C   0  0  0  0  0  0  0  0  0  0  0  0
    2.5284   -3.6237   -0.7502 C   0  0  0  0  0  0  0  0  0  0  0  0
   -5.8743   -0.8692    1.9481 C   0  0  0  0  0  0  0  0  0  0  0  0
   -4.6981    1.1059    3.0212 C   0  0  0  0  0  0  0  0  0  0  0  0
    2.4701   -5.0328   -0.1666 C   0  0  0  0  0  0  0  0  0  0  0  0
    2.7807   -3.8821   -2.2341 C   0  0  0  0  0  0  0  0  0  0  0  0
   -4.0231    0.3354    0.7009 C   0  0  0  0  0  0  0  0  0  0  0  0
    1.7258   -5.8459   -1.2205 C   0  0  0  0  0  0  0  0  0  0  0  0
    2.0018   -5.1572   -2.5560 C   0  0  0  0  0  0  0  0  0  0  0  0
   -7.0290   -0.7099    2.9354 C   0  0  0  0  0  0  0  0  0  0  0  0
   -5.8586    1.2554    4.0031 C   0  0  0  0  0  0  0  0  0  0  0  0
   -6.5682   -0.0737    4.2434 C   0  0  0  0  0  0  0  0  0  0  0  0
   -3.8938    0.9110   -0.5474 C   0  0  0  0  0  0  0  0  0  0  0  0
   -2.8777   -0.4750    0.9370 C   0  0  0  0  0  0  0  0  0  0  0  0
   -2.0446   -0.3543   -0.1802 C   0  0  0  0  0  0  0  0  0  0  0  0
    3.6354   -2.8213   -0.1351 C   0  0  0  0  0  0  0  0  0  0  0  0
   -2.1492    1.0340   -2.2963 C   0  0  0  0  0  0  0  0  0  0  0  0
   -0.8202   -1.0355   -0.2665 C   0  0  0  0  0  0  0  0  0  0  0  0
   -0.4439   -1.8513    0.8047 C   0  0  0  0  0  0  0  0  0  0  0  0
   -2.4755   -1.3015    2.0059 C   0  0  0  0  0  0  0  0  0  0  0  0
    0.8185   -2.5731    0.7444 C   0  0  0  0  0  0  0  0  0  0  0  0
   -4.7746    1.8062   -1.2880 C   0  0  0  0  0  0  0  0  0  0  0  0
   -1.2576   -1.9832    1.9257 C   0  0  0  0  0  0  0  0  0  0  0  0
   -2.9776    0.5981   -3.5007 C   0  0  0  0  0  0  0  0  0  0  0  0
   -4.9281    1.7219   -2.6711 C   0  0  0  0  0  0  0  0  0  0  0  0
    4.5860   -0.5023   -0.3417 C   0  0  0  0  0  0  0  0  0  0  0  0
   -5.7998    2.6128   -3.2915 C   0  0  0  0  0  0  0  0  0  0  0  0
   -6.2323    3.5891   -1.1677 C   0  0  0  0  0  0  0  0  0  0  0  0
   -6.4563    3.5753   -2.5338 C   0  0  0  0  0  0  0  0  0  0  0  0
    4.4779    0.7190   -0.9860 C   0  0  0  0  0  0  0  0  0  0  0  0
    5.5600   -0.7297    0.6163 C   0  0  0  0  0  0  0  0  0  0  0  0
    5.3692    1.7421   -0.6628 C   0  0  0  0  0  0  0  0  0  0  0  0
    6.4511    0.2935    0.9398 C   0  0  0  0  0  0  0  0  0  0  0  0
    6.3557    1.5294    0.3002 C   0  0  0  0  0  0  0  0  0  0  0  0
    7.2848    2.5959    0.6384 C   0  0  0  0  0  0  0  0  0  0  0  0
    7.0840    3.9115    0.4016 C   0  0  0  0  0  0  0  0  0  0  0  0
    8.1043    4.9002    0.8039 C   0  0  0  0  0  0  0  0  0  0  0  0
   -5.9128    1.1384    1.2712 H   0  0  0  0  0  0  0  0  0  0  0  0
   -5.1926   -1.6308    2.3373 H   0  0  0  0  0  0  0  0  0  0  0  0
   -6.2641   -1.2640    1.0012 H   0  0  0  0  0  0  0  0  0  0  0  0
   -4.2644    2.0948    2.8257 H   0  0  0  0  0  0  0  0  0  0  0  0
   -3.9121    0.5186    3.5048 H   0  0  0  0  0  0  0  0  0  0  0  0
    1.9812   -5.1135    0.8084 H   0  0  0  0  0  0  0  0  0  0  0  0
    3.4756   -5.4601   -0.0562 H   0  0  0  0  0  0  0  0  0  0  0  0
    3.8481   -4.0571   -2.4223 H   0  0  0  0  0  0  0  0  0  0  0  0
    2.4698   -3.0559   -2.8834 H   0  0  0  0  0  0  0  0  0  0  0  0
    2.0465   -6.8924   -1.2256 H   0  0  0  0  0  0  0  0  0  0  0  0
    0.6488   -5.8340   -1.0152 H   0  0  0  0  0  0  0  0  0  0  0  0
    1.0566   -4.9178   -3.0564 H   0  0  0  0  0  0  0  0  0  0  0  0
    2.5734   -5.8031   -3.2307 H   0  0  0  0  0  0  0  0  0  0  0  0
   -7.8124   -0.0890    2.4834 H   0  0  0  0  0  0  0  0  0  0  0  0
   -7.4771   -1.6890    3.1393 H   0  0  0  0  0  0  0  0  0  0  0  0
   -6.5762    1.9867    3.6109 H   0  0  0  0  0  0  0  0  0  0  0  0
   -5.4873    1.6526    4.9546 H   0  0  0  0  0  0  0  0  0  0  0  0
   -7.4306    0.0827    4.9010 H   0  0  0  0  0  0  0  0  0  0  0  0
   -5.8893   -0.7605    4.7636 H   0  0  0  0  0  0  0  0  0  0  0  0
    0.7356   -2.6994   -1.3433 H   0  0  0  0  0  0  0  0  0  0  0  0
   -1.1094    0.7184   -2.4189 H   0  0  0  0  0  0  0  0  0  0  0  0
   -2.1382    2.1270   -2.2012 H   0  0  0  0  0  0  0  0  0  0  0  0
   -0.1881   -0.8913   -1.1354 H   0  0  0  0  0  0  0  0  0  0  0  0
   -3.0802   -1.4323    2.8970 H   0  0  0  0  0  0  0  0  0  0  0  0
   -0.9664   -2.6211    2.7569 H   0  0  0  0  0  0  0  0  0  0  0  0
   -2.7804   -0.4629   -3.6958 H   0  0  0  0  0  0  0  0  0  0  0  0
   -2.6402    1.1446   -4.3892 H   0  0  0  0  0  0  0  0  0  0  0  0
    2.9886   -1.2999   -1.3753 H   0  0  0  0  0  0  0  0  0  0  0  0
   -5.9764    2.5578   -4.3622 H   0  0  0  0  0  0  0  0  0  0  0  0
   -6.7258    4.3159   -0.5310 H   0  0  0  0  0  0  0  0  0  0  0  0
   -7.1331    4.2842   -2.9969 H   0  0  0  0  0  0  0  0  0  0  0  0
    3.7154    0.8929   -1.7403 H   0  0  0  0  0  0  0  0  0  0  0  0
    5.6968   -1.6568    1.1532 H   0  0  0  0  0  0  0  0  0  0  0  0
    5.2695    2.6805   -1.2003 H   0  0  0  0  0  0  0  0  0  0  0  0
    7.2132    0.1106    1.6939 H   0  0  0  0  0  0  0  0  0  0  0  0
    8.2014    2.2784    1.1313 H   0  0  0  0  0  0  0  0  0  0  0  0
    6.1824    4.2958   -0.0618 H   0  0  0  0  0  0  0  0  0  0  0  0
    8.3097    6.8339    0.7181 H   0  0  0  0  0  0  0  0  0  0  0  0
  1 33  1  0  0  0  0
  1 34  1  0  0  0  0
  2 25  2  0  0  0  0
  3 30  2  0  0  0  0
  4 46  1  0  0  0  0
  4 84  1  0  0  0  0
  5 46  2  0  0  0  0
  6 22  1  0  0  0  0
  6 24  1  0  0  0  0
  6 26  1  0  0  0  0
  7 11  1  0  0  0  0
  7 30  1  0  0  0  0
  7 66  1  0  0  0  0
  8 25  1  0  0  0  0
  8 35  1  0  0  0  0
  8 74  1  0  0  0  0
  9 31  1  0  0  0  0
  9 37  2  0  0  0  0
 10 12  1  0  0  0  0
 10 13  1  0  0  0  0
 10 16  1  0  0  0  0
 10 47  1  0  0  0  0
 11 14  1  0  0  0  0
 11 15  1  0  0  0  0
 11 25  1  0  0  0  0
 12 19  1  0  0  0  0
 12 48  1  0  0  0  0
 12 49  1  0  0  0  0
 13 20  1  0  0  0  0
 13 50  1  0  0  0  0
 13 51  1  0  0  0  0
 14 17  1  0  0  0  0
 14 52  1  0  0  0  0
 14 53  1  0  0  0  0
 15 18  1  0  0  0  0
 15 54  1  0  0  0  0
 15 55  1  0  0  0  0
 16 22  2  0  0  0  0
 16 23  1  0  0  0  0
 17 18  1  0  0  0  0
 17 56  1  0  0  0  0
 17 57  1  0  0  0  0
 18 58  1  0  0  0  0
 18 59  1  0  0  0  0
 19 21  1  0  0  0  0
 19 60  1  0  0  0  0
 19 61  1  0  0  0  0
 20 21  1  0  0  0  0
 20 62  1  0  0  0  0
 20 63  1  0  0  0  0
 21 64  1  0  0  0  0
 21 65  1  0  0  0  0
 22 31  1  0  0  0  0
 23 24  2  0  0  0  0
 23 29  1  0  0  0  0
 24 27  1  0  0  0  0
 26 33  1  0  0  0  0
 26 67  1  0  0  0  0
 26 68  1  0  0  0  0
 27 28  2  0  0  0  0
 27 69  1  0  0  0  0
 28 30  1  0  0  0  0
 28 32  1  0  0  0  0
 29 32  2  0  0  0  0
 29 70  1  0  0  0  0
 31 34  2  0  0  0  0
 32 71  1  0  0  0  0
 33 72  1  0  0  0  0
 33 73  1  0  0  0  0
 34 36  1  0  0  0  0
 35 39  2  0  0  0  0
 35 40  1  0  0  0  0
 36 38  2  0  0  0  0
 36 75  1  0  0  0  0
 37 38  1  0  0  0  0
 37 76  1  0  0  0  0
 38 77  1  0  0  0  0
 39 41  1  0  0  0  0
 39 78  1  0  0  0  0
 40 42  2  0  0  0  0
 40 79  1  0  0  0  0
 41 43  2  0  0  0  0
 41 80  1  0  0  0  0
 42 43  1  0  0  0  0
 42 81  1  0  0  0  0
 43 44  1  0  0  0  0
 44 45  2  0  0  0  0
 44 82  1  0  0  0  0
 45 46  1  0  0  0  0
 45 83  1  0  0  0  0
M  END
> <PUBCHEM_COMPOUND_CID>
11707129

> <PUBCHEM_CONFORMER_RMSD>
1.2

> <PUBCHEM_CONFORMER_DIVERSEORDER>
1
22
4
42
39
35
20
21
17
31
11
36
27
7
14
10
15
3
37
16
26
9
23
24
2
6
19
38
18
12
33
34
29
41
28
43
25
8
5
40
32
30
13

> <PUBCHEM_MMFF94_PARTIAL_CHARGES>
51
1 -0.36
10 0.18
11 0.36
16 -0.18
2 -0.57
22 -0.2
24 -0.15
25 0.57
26 0.26
27 -0.15
28 0.09
29 -0.15
3 -0.57
30 0.54
31 0.36
32 -0.15
33 0.28
34 0.08
35 0.12
36 -0.15
37 0.16
38 -0.15
39 -0.15
4 -0.65
40 -0.15
41 -0.15
42 -0.15
43 0.03
44 -0.18
45 -0.14
46 0.71
5 -0.57
6 0.05
66 0.37
69 0.15
7 -0.73
70 0.15
71 0.15
74 0.37
75 0.15
76 0.15
77 0.15
78 0.15
79 0.15
8 -0.55
80 0.15
81 0.15
82 0.15
83 0.15
84 0.5
9 -0.62

> <PUBCHEM_EFFECTIVE_ROTOR_COUNT>
11.8

> <PUBCHEM_PHARMACOPHORE_FEATURES>
17
1 1 acceptor
1 2 acceptor
1 3 acceptor
1 4 acceptor
1 5 acceptor
1 6 cation
1 7 donor
1 8 donor
1 9 acceptor
3 4 5 46 anion
5 11 14 15 17 18 rings
5 6 16 22 23 24 rings
6 10 12 13 19 20 21 rings
6 23 24 27 28 29 32 rings
6 35 39 40 41 42 43 rings
6 9 31 34 36 37 38 rings
7 1 6 22 26 31 33 34 rings

> <PUBCHEM_HEAVY_ATOM_COUNT>
46

> <PUBCHEM_ATOM_DEF_STEREO_COUNT>
0

> <PUBCHEM_ATOM_UDEF_STEREO_COUNT>
0

> <PUBCHEM_BOND_DEF_STEREO_COUNT>
1

> <PUBCHEM_BOND_UDEF_STEREO_COUNT>
0

> <PUBCHEM_ISOTOPIC_ATOM_COUNT>
0

> <PUBCHEM_COMPONENT_COUNT>
1

> <PUBCHEM_CACTVS_TAUTO_COUNT>
4

> <PUBCHEM_CONFORMER_ID>
00B2A2F900000001

> <PUBCHEM_MMFF94_ENERGY>
143.1769

> <PUBCHEM_FEATURE_SELFOVERLAP>
86.49

> <PUBCHEM_SHAPE_FINGERPRINT>
10369192 42 18341341101136883322
10930396 42 17314227946368815321
11479125 193 18411408506093071580
12061779 8 17274557442036971473
12975358 362 18262248801983564836
15131766 46 18130794447292880601
15448158 71 18116712018961464452
15530120 55 16200159785490156092
15685185 35 17915189120727610096
19309040 13 17774735189912206438
21033648 29 17531531966559380574
21647283 7 17967809445241294048
23522609 53 17059230146137386443
23569914 152 8240731202600405715
23569914 2 17605809483532956125
3610482 184 16558469678526766763
4112364 45 18334291003395937146
6697151 62 17760361089540076254

> <PUBCHEM_SHAPE_MULTIPOLES>
897.39
23.54
7.66
3.94
22.37
0.84
-0.36
-37.35
-9.34
19.88
2.78
-11.89
-0.92
8.85

> <PUBCHEM_SHAPE_SELFOVERLAP>
1982.304

> <PUBCHEM_SHAPE_VOLUME>
476.9

> <PUBCHEM_COORDINATE_TYPE>
2
5
10

$$$$
