
 OpenBabel09182209113D

 48 54  0  0  0  0  0  0  0  0999 V2000
    2.3280  -12.0280    3.7280 N   0  0  0  0  0  0  0  0  0  0  0  0
    1.7630  -10.8560    3.2970 C   0  0  0  0  0  0  0  0  0  0  0  0
    0.5840  -10.8580    2.9510 O   0  0  0  0  0  0  0  0  0  0  0  0
    1.6660  -12.7850    3.6060 H   0  0  0  0  0  0  0  0  0  0  0  0
    2.4950   -9.5720    3.2990 C   0  0  0  0  0  0  0  0  0  0  0  0
    2.2230   -8.6810    4.3350 C   0  0  0  0  0  3  0  0  0  0  0  0
    2.8480   -7.4290    4.3750 C   0  0  0  0  0  3  0  0  0  0  0  0
    3.7720   -7.0650    3.3710 C   0  0  0  0  0  0  0  0  0  0  0  0
    4.5560   -5.8870    3.1110 C   0  0  0  0  0  0  0  0  0  0  0  0
    5.3880   -6.1740    2.0180 C   0  0  0  0  0  0  0  0  0  0  0  0
    4.9600   -7.3880    1.5180 N   0  0  0  0  0  0  0  0  0  0  0  0
    4.0220   -7.9720    2.3430 C   0  0  0  0  0  0  0  0  0  0  0  0
    3.3610   -9.2130    2.2640 C   0  0  0  0  0  3  0  0  0  0  0  0
    5.4100   -7.9480    0.2540 C   0  0  0  0  0  2  0  0  0  0  0  0
    5.3380   -6.8840   -0.8240 C   0  0  0  0  0  2  0  0  0  0  0  0
    6.5520   -6.1510   -0.9370 O   0  0  0  0  0  0  0  0  0  0  0  0
    6.9970   -5.4440    0.1420 C   0  0  0  0  0  0  0  0  0  0  0  0
    8.1280   -4.6750   -0.1670 C   0  0  0  0  0  3  0  0  0  0  0  0
    8.7560   -3.9090    0.8060 C   0  0  0  0  0  3  0  0  0  0  0  0
    8.2330   -3.9440    2.0790 C   0  0  0  0  0  3  0  0  0  0  0  0
    7.1500   -4.6710    2.4180 N   0  0  0  0  0  0  0  0  0  0  0  0
    6.5230   -5.4070    1.4570 C   0  0  0  0  0  0  0  0  0  0  0  0
    4.5070   -4.5870    3.8930 C   0  0  0  0  0  3  0  0  0  0  0  0
    3.1220   -3.9130    3.8360 C   0  0  0  0  0  2  0  0  0  0  0  0
    3.1100   -2.5920    4.5990 C   0  0  0  0  0  2  0  0  0  0  0  0
    3.5840   -2.7710    6.0380 C   0  0  0  0  0  2  0  0  0  0  0  0
    4.9610   -3.4270    6.1000 C   0  0  0  0  0  2  0  0  0  0  0  0
    4.9910   -4.7530    5.3420 C   0  0  0  0  0  2  0  0  0  0  0  0
    3.6420  -12.3640    4.3130 C   0  0  0  0  0  0  0  0  0  0  0  0
    3.7710  -13.9040    4.5190 C   0  0  0  0  0  2  0  0  0  0  0  0
    3.9450  -14.1530    6.0140 C   0  0  0  0  0  2  0  0  0  0  0  0
    4.5320  -12.8650    6.5420 C   0  0  0  0  0  2  0  0  0  0  0  0
    3.7650  -11.8110    5.7600 C   0  0  0  0  0  2  0  0  0  0  0  0
    4.9990  -12.1370    2.1070 N   0  0  0  0  0  0  0  0  0  0  0  0
    4.8450  -11.8850    3.4380 C   0  0  0  0  0  0  0  0  0  0  0  0
    5.7820  -11.2550    3.9550 O   0  0  0  0  0  0  0  0  0  0  0  0
    5.7620  -11.5800    1.7430 H   0  0  0  0  0  0  0  0  0  0  0  0
    3.1060  -14.3780   -0.9440 C   0  0  0  0  0  0  0  0  0  0  0  0
    3.7360  -15.0440    0.1110 C   0  0  0  0  0  3  0  0  0  0  0  0
    4.3740  -14.3340    1.1380 C   0  0  0  0  0  3  0  0  0  0  0  0
    4.3670  -12.9450    1.1510 C   0  0  0  0  0  0  0  0  0  0  0  0
    3.7540  -12.2760    0.0830 C   0  0  0  0  0  3  0  0  0  0  0  0
    3.1150  -12.9820   -0.9430 C   0  0  0  0  0  3  0  0  0  0  0  0
    2.0540  -14.6970   -3.1830 C   0  0  0  0  0  3  0  0  0  0  0  0
    2.4340  -15.1670   -1.9840 C   0  0  0  0  0  3  0  0  0  0  0  0
    0.6050  -16.4790   -3.7970 O   0  0  0  0  0  1  0  0  0  0  0  0
    1.3710  -15.5760   -4.2300 C   0  0  0  0  0  0  0  0  0  0  0  0
    1.6780  -15.2760   -5.4200 O   0  0  0  0  0  0  0  0  0  0  0  0
  1 29  1  0  0  0  0
  2  5  1  0  0  0  0
  2  1  1  0  0  0  0
  3  2  2  0  0  0  0
  4  1  1  0  0  0  0
  5  6  1  0  0  0  0
  6  7  2  0  0  0  0
  8  7  1  0  0  0  0
  9  8  1  0  0  0  0
  9 23  1  0  0  0  0
 10  9  2  0  0  0  0
 11 10  1  0  0  0  0
 11 12  1  0  0  0  0
 12  8  2  0  0  0  0
 13 12  1  0  0  0  0
 13  5  2  0  0  0  0
 14 11  1  0  0  0  0
 15 14  1  0  0  0  0
 16 15  1  0  0  0  0
 16 17  1  0  0  0  0
 17 22  1  0  0  0  0
 18 17  2  0  0  0  0
 18 19  1  0  0  0  0
 19 20  2  0  0  0  0
 20 21  1  0  0  0  0
 22 10  1  0  0  0  0
 22 21  2  0  0  0  0
 23 28  1  0  0  0  0
 24 23  1  0  0  0  0
 24 25  1  0  0  0  0
 25 26  1  0  0  0  0
 26 27  1  0  0  0  0
 28 27  1  0  0  0  0
 29 30  1  0  0  0  0
 29 33  1  0  0  0  0
 30 31  1  0  0  0  0
 31 32  1  0  0  0  0
 33 32  1  0  0  0  0
 34 35  1  0  0  0  0
 35 36  2  0  0  0  0
 35 29  1  0  0  0  0
 37 34  1  0  0  0  0
 38 43  2  0  0  0  0
 38 39  1  0  0  0  0
 39 40  2  0  0  0  0
 40 41  1  0  0  0  0
 41 34  1  0  0  0  0
 42 41  2  0  0  0  0
 43 42  1  0  0  0  0
 44 45  2  0  0  0  0
 45 38  1  0  0  0  0
 47 46  1  0  0  0  0
 47 44  1  0  0  0  0
 48 47  2  0  0  0  0
M  END
>  <minimizedAffinity>
-10.4157743

$$$$
