
 OpenBabel09182209113D

 48 54  0  0  0  0  0  0  0  0999 V2000
    4.4210   -9.3970    0.3330 N   0  0  0  0  0  0  0  0  0  0  0  0
    4.8430   -8.1270    0.0360 C   0  0  0  0  0  0  0  0  0  0  0  0
    4.9880   -7.8110   -1.1430 O   0  0  0  0  0  0  0  0  0  0  0  0
    4.3740   -9.9430   -0.5190 H   0  0  0  0  0  0  0  0  0  0  0  0
    5.0610   -7.0970    1.0730 C   0  0  0  0  0  0  0  0  0  0  0  0
    4.0500   -6.9090    2.0130 C   0  0  0  0  0  3  0  0  0  0  0  0
    4.1720   -5.9220    2.9970 C   0  0  0  0  0  3  0  0  0  0  0  0
    5.3310   -5.1150    3.0530 C   0  0  0  0  0  0  0  0  0  0  0  0
    5.7560   -4.0320    3.8990 C   0  0  0  0  0  0  0  0  0  0  0  0
    7.0750   -3.7150    3.5370 C   0  0  0  0  0  0  0  0  0  0  0  0
    7.3380   -4.4300    2.3850 N   0  0  0  0  0  0  0  0  0  0  0  0
    6.3240   -5.3200    2.0990 C   0  0  0  0  0  0  0  0  0  0  0  0
    6.1900   -6.2760    1.0730 C   0  0  0  0  0  3  0  0  0  0  0  0
    8.5160   -4.2260    1.5560 C   0  0  0  0  0  2  0  0  0  0  0  0
    8.7070   -2.7420    1.3070 C   0  0  0  0  0  2  0  0  0  0  0  0
    9.5320   -2.1350    2.2930 O   0  0  0  0  0  0  0  0  0  0  0  0
    9.1300   -2.1620    3.5970 C   0  0  0  0  0  0  0  0  0  0  0  0
    9.9790   -1.4120    4.4220 C   0  0  0  0  0  3  0  0  0  0  0  0
    9.7630   -1.3420    5.7920 C   0  0  0  0  0  3  0  0  0  0  0  0
    8.6930   -2.0430    6.3030 C   0  0  0  0  0  3  0  0  0  0  0  0
    7.8550   -2.7780    5.5460 N   0  0  0  0  0  0  0  0  0  0  0  0
    8.0580   -2.8290    4.1990 C   0  0  0  0  0  0  0  0  0  0  0  0
    4.9380   -3.3770    4.9970 C   0  0  0  0  0  3  0  0  0  0  0  0
    3.5530   -2.9140    4.5050 C   0  0  0  0  0  2  0  0  0  0  0  0
    2.7650   -2.2270    5.6170 C   0  0  0  0  0  2  0  0  0  0  0  0
    2.6510   -3.1120    6.8540 C   0  0  0  0  0  2  0  0  0  0  0  0
    4.0220   -3.5630    7.3520 C   0  0  0  0  0  2  0  0  0  0  0  0
    4.8240   -4.2560    6.2520 C   0  0  0  0  0  2  0  0  0  0  0  0
    4.0370  -10.0680    1.5920 C   0  0  0  0  0  0  0  0  0  0  0  0
    4.6420   -9.3180    2.8170 C   0  0  0  0  0  2  0  0  0  0  0  0
    5.5800  -10.2880    3.5300 C   0  0  0  0  0  2  0  0  0  0  0  0
    5.0580  -11.6550    3.1560 C   0  0  0  0  0  2  0  0  0  0  0  0
    4.6870  -11.4760    1.6930 C   0  0  0  0  0  2  0  0  0  0  0  0
    1.7080  -11.2030    1.3830 N   0  0  0  0  0  0  0  0  0  0  0  0
    2.4900  -10.1630    1.7900 C   0  0  0  0  0  0  0  0  0  0  0  0
    1.8680   -9.2270    2.3190 O   0  0  0  0  0  0  0  0  0  0  0  0
    0.7800  -11.1040    1.7770 H   0  0  0  0  0  0  0  0  0  0  0  0
    2.3360  -14.5050   -1.1910 C   0  0  0  0  0  0  0  0  0  0  0  0
    2.1200  -14.7230    0.1730 C   0  0  0  0  0  3  0  0  0  0  0  0
    1.9100  -13.6530    1.0550 C   0  0  0  0  0  3  0  0  0  0  0  0
    1.8780  -12.3460    0.5880 C   0  0  0  0  0  0  0  0  0  0  0  0
    2.1140  -12.1230   -0.7750 C   0  0  0  0  0  3  0  0  0  0  0  0
    2.3230  -13.1890   -1.6580 C   0  0  0  0  0  3  0  0  0  0  0  0
    1.8210  -15.9040   -3.1890 C   0  0  0  0  0  3  0  0  0  0  0  0
    2.5290  -15.6600   -2.0750 C   0  0  0  0  0  3  0  0  0  0  0  0
    1.0890  -17.5970   -4.6910 O   0  0  0  0  0  0  0  0  0  0  0  0
    2.0830  -17.1200   -4.0790 C   0  0  0  0  0  0  0  0  0  0  0  0
    3.2900  -17.4960   -4.0770 O   0  0  0  0  0  1  0  0  0  0  0  0
  1 29  1  0  0  0  0
  2  1  1  0  0  0  0
  2  5  1  0  0  0  0
  3  2  2  0  0  0  0
  4  1  1  0  0  0  0
  5  6  1  0  0  0  0
  6  7  2  0  0  0  0
  7  8  1  0  0  0  0
  8  9  1  0  0  0  0
  9 23  1  0  0  0  0
 10  9  2  0  0  0  0
 10 22  1  0  0  0  0
 11 10  1  0  0  0  0
 12 11  1  0  0  0  0
 12  8  2  0  0  0  0
 13  5  2  0  0  0  0
 13 12  1  0  0  0  0
 14 11  1  0  0  0  0
 15 14  1  0  0  0  0
 15 16  1  0  0  0  0
 16 17  1  0  0  0  0
 17 22  2  0  0  0  0
 17 18  1  0  0  0  0
 18 19  2  0  0  0  0
 19 20  1  0  0  0  0
 21 20  2  0  0  0  0
 22 21  1  0  0  0  0
 23 28  1  0  0  0  0
 24 23  1  0  0  0  0
 24 25  1  0  0  0  0
 25 26  1  0  0  0  0
 26 27  1  0  0  0  0
 28 27  1  0  0  0  0
 29 33  1  0  0  0  0
 29 35  1  0  0  0  0
 29 30  1  0  0  0  0
 30 31  1  0  0  0  0
 32 31  1  0  0  0  0
 33 32  1  0  0  0  0
 34 37  1  0  0  0  0
 34 35  1  0  0  0  0
 35 36  2  0  0  0  0
 38 39  1  0  0  0  0
 39 40  2  0  0  0  0
 41 40  1  0  0  0  0
 41 34  1  0  0  0  0
 42 41  2  0  0  0  0
 43 38  2  0  0  0  0
 43 42  1  0  0  0  0
 44 45  2  0  0  0  0
 45 38  1  0  0  0  0
 46 47  2  0  0  0  0
 47 48  1  0  0  0  0
 47 44  1  0  0  0  0
M  END
>  <minimizedAffinity>
-7.82901287

$$$$
