
 OpenBabel09182209113D

 48 54  0  0  0  0  0  0  0  0999 V2000
    1.8510  -11.6930    5.1110 N   0  0  0  0  0  0  0  0  0  0  0  0
    1.3750  -10.6450    4.3680 C   0  0  0  0  0  0  0  0  0  0  0  0
    0.2350  -10.7120    3.9110 O   0  0  0  0  0  0  0  0  0  0  0  0
    1.1780  -12.4490    5.0970 H   0  0  0  0  0  0  0  0  0  0  0  0
    2.1480   -9.4040    4.1530 C   0  0  0  0  0  0  0  0  0  0  0  0
    1.9780   -8.3740    5.0750 C   0  0  0  0  0  3  0  0  0  0  0  0
    2.6460   -7.1560    4.9090 C   0  0  0  0  0  3  0  0  0  0  0  0
    3.5130   -6.9660    3.8090 C   0  0  0  0  0  0  0  0  0  0  0  0
    4.3170   -5.8670    3.3460 C   0  0  0  0  0  0  0  0  0  0  0  0
    5.0640   -6.3300    2.2520 C   0  0  0  0  0  0  0  0  0  0  0  0
    4.5620   -7.5800    1.9460 N   0  0  0  0  0  0  0  0  0  0  0  0
    3.6620   -8.0100    2.8990 C   0  0  0  0  0  0  0  0  0  0  0  0
    2.9550   -9.2220    3.0270 C   0  0  0  0  0  3  0  0  0  0  0  0
    4.9060   -8.3200    0.7430 C   0  0  0  0  0  2  0  0  0  0  0  0
    4.7980   -7.4040   -0.4610 C   0  0  0  0  0  2  0  0  0  0  0  0
    6.0260   -6.7460   -0.7450 O   0  0  0  0  0  0  0  0  0  0  0  0
    6.5670   -5.9230    0.1990 C   0  0  0  0  0  0  0  0  0  0  0  0
    7.7000   -5.2500   -0.2800 C   0  0  0  0  0  3  0  0  0  0  0  0
    8.4190   -4.3910    0.5410 C   0  0  0  0  0  3  0  0  0  0  0  0
    7.9810   -4.2360    1.8370 C   0  0  0  0  0  3  0  0  0  0  0  0
    6.9000   -4.8660    2.3380 N   0  0  0  0  0  0  0  0  0  0  0  0
    6.1840   -5.6940    1.5250 C   0  0  0  0  0  0  0  0  0  0  0  0
    4.3660   -4.4750    3.9490 C   0  0  0  0  0  3  0  0  0  0  0  0
    2.9810   -3.8000    3.9930 C   0  0  0  0  0  2  0  0  0  0  0  0
    3.0630   -2.3900    4.5700 C   0  0  0  0  0  2  0  0  0  0  0  0
    3.7300   -2.3830    5.9420 C   0  0  0  0  0  2  0  0  0  0  0  0
    5.1070   -3.0390    5.9020 C   0  0  0  0  0  2  0  0  0  0  0  0
    5.0440   -4.4540    5.3280 C   0  0  0  0  0  2  0  0  0  0  0  0
    3.0890  -11.9010    5.8910 C   0  0  0  0  0  0  0  0  0  0  0  0
    3.3210  -10.7140    6.8750 C   0  0  0  0  0  2  0  0  0  0  0  0
    4.6380  -10.0480    6.4860 C   0  0  0  0  0  2  0  0  0  0  0  0
    5.4170  -11.1390    5.7890 C   0  0  0  0  0  2  0  0  0  0  0  0
    4.3410  -11.8400    4.9740 C   0  0  0  0  0  2  0  0  0  0  0  0
    3.5440  -14.4310    6.2770 N   0  0  0  0  0  0  0  0  0  0  0  0
    3.0790  -13.2280    6.7180 C   0  0  0  0  0  0  0  0  0  0  0  0
    2.5820  -13.2520    7.8550 O   0  0  0  0  0  0  0  0  0  0  0  0
    3.5820  -15.0830    7.0510 H   0  0  0  0  0  0  0  0  0  0  0  0
    4.6270  -16.0050    2.5000 C   0  0  0  0  0  0  0  0  0  0  0  0
    5.6120  -15.4620    3.3290 C   0  0  0  0  0  3  0  0  0  0  0  0
    5.2890  -14.9300    4.5870 C   0  0  0  0  0  3  0  0  0  0  0  0
    3.9820  -14.9610    5.0550 C   0  0  0  0  0  0  0  0  0  0  0  0
    2.9900  -15.4870    4.2170 C   0  0  0  0  0  3  0  0  0  0  0  0
    3.3090  -16.0190    2.9620 C   0  0  0  0  0  3  0  0  0  0  0  0
    4.5700  -16.1430    0.0110 C   0  0  0  0  0  3  0  0  0  0  0  0
    5.0200  -16.5690    1.2030 C   0  0  0  0  0  3  0  0  0  0  0  0
    4.1290  -17.1070   -2.1180 O   0  0  0  0  0  0  0  0  0  0  0  0
    5.0320  -16.7620   -1.3080 C   0  0  0  0  0  0  0  0  0  0  0  0
    6.2900  -16.8530   -1.4110 O   0  0  0  0  0  1  0  0  0  0  0  0
  1 29  1  0  0  0  0
  2  1  1  0  0  0  0
  3  2  2  0  0  0  0
  4  1  1  0  0  0  0
  5  2  1  0  0  0  0
  5  6  1  0  0  0  0
  7  6  2  0  0  0  0
  8  7  1  0  0  0  0
  9  8  1  0  0  0  0
  9 23  1  0  0  0  0
 10  9  2  0  0  0  0
 11 10  1  0  0  0  0
 11 12  1  0  0  0  0
 12 13  1  0  0  0  0
 12  8  2  0  0  0  0
 13  5  2  0  0  0  0
 14 11  1  0  0  0  0
 15 14  1  0  0  0  0
 16 15  1  0  0  0  0
 16 17  1  0  0  0  0
 17 22  1  0  0  0  0
 18 17  2  0  0  0  0
 18 19  1  0  0  0  0
 19 20  2  0  0  0  0
 20 21  1  0  0  0  0
 22 10  1  0  0  0  0
 22 21  2  0  0  0  0
 23 24  1  0  0  0  0
 23 28  1  0  0  0  0
 24 25  1  0  0  0  0
 25 26  1  0  0  0  0
 27 26  1  0  0  0  0
 28 27  1  0  0  0  0
 29 35  1  0  0  0  0
 29 30  1  0  0  0  0
 31 30  1  0  0  0  0
 32 31  1  0  0  0  0
 33 32  1  0  0  0  0
 33 29  1  0  0  0  0
 34 35  1  0  0  0  0
 34 37  1  0  0  0  0
 35 36  2  0  0  0  0
 38 43  2  0  0  0  0
 38 39  1  0  0  0  0
 39 40  2  0  0  0  0
 40 41  1  0  0  0  0
 41 34  1  0  0  0  0
 42 41  2  0  0  0  0
 43 42  1  0  0  0  0
 44 45  2  0  0  0  0
 45 38  1  0  0  0  0
 46 47  2  0  0  0  0
 47 44  1  0  0  0  0
 48 47  1  0  0  0  0
M  END
>  <minimizedAffinity>
-8.81106186

$$$$
