
 OpenBabel09182209113D

 48 54  0  0  0  0  0  0  0  0999 V2000
    4.8060  -11.1070    2.2490 N   0  0  0  0  0  0  0  0  0  0  0  0
    4.6560  -10.7600    3.5660 C   0  0  0  0  0  0  0  0  0  0  0  0
    5.6430  -10.3860    4.1960 O   0  0  0  0  0  0  0  0  0  0  0  0
    5.7890  -11.0830    2.0040 H   0  0  0  0  0  0  0  0  0  0  0  0
    3.3420  -10.7470    4.2410 C   0  0  0  0  0  0  0  0  0  0  0  0
    2.6730   -9.5270    4.3190 C   0  0  0  0  0  3  0  0  0  0  0  0
    1.4440   -9.4340    4.9820 C   0  0  0  0  0  3  0  0  0  0  0  0
    0.8640  -10.5820    5.5670 C   0  0  0  0  0  0  0  0  0  0  0  0
   -0.3410  -10.8250    6.3130 C   0  0  0  0  0  0  0  0  0  0  0  0
   -0.4310  -12.2110    6.5190 C   0  0  0  0  0  0  0  0  0  0  0  0
    0.7760  -12.7380    6.1050 N   0  0  0  0  0  0  0  0  0  0  0  0
    1.5560  -11.7880    5.4800 C   0  0  0  0  0  0  0  0  0  0  0  0
    2.8170  -11.8840    4.8600 C   0  0  0  0  0  3  0  0  0  0  0  0
    1.1860  -14.1130    6.3470 C   0  0  0  0  0  2  0  0  0  0  0  0
    0.9310  -14.4670    7.7990 C   0  0  0  0  0  2  0  0  0  0  0  0
   -0.3640  -15.0210    7.9970 O   0  0  0  0  0  0  0  0  0  0  0  0
   -1.4580  -14.2670    7.6840 C   0  0  0  0  0  0  0  0  0  0  0  0
   -2.6520  -14.8980    8.0570 C   0  0  0  0  0  3  0  0  0  0  0  0
   -3.8820  -14.3100    7.7920 C   0  0  0  0  0  3  0  0  0  0  0  0
   -3.8790  -13.0950    7.1450 C   0  0  0  0  0  3  0  0  0  0  0  0
   -2.7550  -12.4560    6.7670 N   0  0  0  0  0  0  0  0  0  0  0  0
   -1.5480  -13.0260    7.0450 C   0  0  0  0  0  0  0  0  0  0  0  0
   -1.3420   -9.7780    6.7670 C   0  0  0  0  0  3  0  0  0  0  0  0
   -0.6940   -8.6750    7.6280 C   0  0  0  0  0  2  0  0  0  0  0  0
   -1.7270   -7.6550    8.1010 C   0  0  0  0  0  2  0  0  0  0  0  0
   -2.5070   -7.0640    6.9310 C   0  0  0  0  0  2  0  0  0  0  0  0
   -3.1600   -8.1510    6.0820 C   0  0  0  0  0  2  0  0  0  0  0  0
   -2.1410   -9.1810    5.5980 C   0  0  0  0  0  2  0  0  0  0  0  0
    3.8510  -11.4770    1.1840 C   0  0  0  0  0  0  0  0  0  0  0  0
    3.2210  -12.8730    1.4750 C   0  0  0  0  0  2  0  0  0  0  0  0
    3.6140  -13.8020    0.3300 C   0  0  0  0  0  2  0  0  0  0  0  0
    3.8730  -12.8720   -0.8320 C   0  0  0  0  0  2  0  0  0  0  0  0
    4.5850  -11.7050   -0.1670 C   0  0  0  0  0  2  0  0  0  0  0  0
    2.8570   -9.1160    0.7470 N   0  0  0  0  0  0  0  0  0  0  0  0
    2.6920  -10.4430    1.0100 C   0  0  0  0  0  0  0  0  0  0  0  0
    1.5110  -10.7970    1.1540 O   0  0  0  0  0  0  0  0  0  0  0  0
    1.9620   -8.7030    0.5130 H   0  0  0  0  0  0  0  0  0  0  0  0
    6.1320   -6.4370    0.8840 C   0  0  0  0  0  0  0  0  0  0  0  0
    5.7870   -7.0440   -0.3270 C   0  0  0  0  0  3  0  0  0  0  0  0
    4.7090   -7.9380   -0.4090 C   0  0  0  0  0  3  0  0  0  0  0  0
    3.9330   -8.2170    0.7090 C   0  0  0  0  0  0  0  0  0  0  0  0
    4.2900   -7.6260    1.9280 C   0  0  0  0  0  3  0  0  0  0  0  0
    5.3640   -6.7330    2.0130 C   0  0  0  0  0  3  0  0  0  0  0  0
    8.0150   -5.1680   -0.1470 C   0  0  0  0  0  3  0  0  0  0  0  0
    7.2560   -5.4930    0.9120 C   0  0  0  0  0  3  0  0  0  0  0  0
    9.9400   -4.1010   -1.0460 O   0  0  0  0  0  0  0  0  0  0  0  0
    9.1630   -4.1630   -0.0550 C   0  0  0  0  0  0  0  0  0  0  0  0
    9.1830   -3.5160    1.0310 O   0  0  0  0  0  1  0  0  0  0  0  0
  1  2  1  0  0  0  0
  2  3  2  0  0  0  0
  2  5  1  0  0  0  0
  4  1  1  0  0  0  0
  5  6  2  0  0  0  0
  5 13  1  0  0  0  0
  6  7  1  0  0  0  0
  7  8  2  0  0  0  0
  8  9  1  0  0  0  0
  9 10  2  0  0  0  0
  9 23  1  0  0  0  0
 10 22  1  0  0  0  0
 11 14  1  0  0  0  0
 11 10  1  0  0  0  0
 12  8  1  0  0  0  0
 12 11  1  0  0  0  0
 13 12  2  0  0  0  0
 14 15  1  0  0  0  0
 15 16  1  0  0  0  0
 17 16  1  0  0  0  0
 17 18  1  0  0  0  0
 19 18  2  0  0  0  0
 20 19  1  0  0  0  0
 21 22  1  0  0  0  0
 21 20  2  0  0  0  0
 22 17  2  0  0  0  0
 23 24  1  0  0  0  0
 24 25  1  0  0  0  0
 26 25  1  0  0  0  0
 27 26  1  0  0  0  0
 28 27  1  0  0  0  0
 28 23  1  0  0  0  0
 29 30  1  0  0  0  0
 29  1  1  0  0  0  0
 31 30  1  0  0  0  0
 32 33  1  0  0  0  0
 32 31  1  0  0  0  0
 33 29  1  0  0  0  0
 34 35  1  0  0  0  0
 35 36  2  0  0  0  0
 35 29  1  0  0  0  0
 37 34  1  0  0  0  0
 38 45  1  0  0  0  0
 38 43  1  0  0  0  0
 39 38  2  0  0  0  0
 40 39  1  0  0  0  0
 40 41  2  0  0  0  0
 41 34  1  0  0  0  0
 41 42  1  0  0  0  0
 42 43  2  0  0  0  0
 44 47  1  0  0  0  0
 44 45  2  0  0  0  0
 46 47  2  0  0  0  0
 47 48  1  0  0  0  0
M  END
>  <minimizedAffinity>
-8.26670074

$$$$
