
 OpenBabel09182209113D

 48 54  0  0  0  0  0  0  0  0999 V2000
    3.1750  -13.4760    2.0260 N   0  0  0  0  0  0  0  0  0  0  0  0
    2.3030  -12.4660    1.7120 C   0  0  0  0  0  0  0  0  0  0  0  0
    1.6340  -12.5570    0.6850 O   0  0  0  0  0  0  0  0  0  0  0  0
    3.1990  -14.1470    1.2670 H   0  0  0  0  0  0  0  0  0  0  0  0
    2.0790  -11.3040    2.5970 C   0  0  0  0  0  0  0  0  0  0  0  0
    0.8860  -11.2640    3.3140 C   0  0  0  0  0  3  0  0  0  0  0  0
    0.5900  -10.1720    4.1380 C   0  0  0  0  0  3  0  0  0  0  0  0
    1.5100   -9.1060    4.2600 C   0  0  0  0  0  0  0  0  0  0  0  0
    1.5110   -7.8630    4.9850 C   0  0  0  0  0  0  0  0  0  0  0  0
    2.7730   -7.2770    4.8030 C   0  0  0  0  0  0  0  0  0  0  0  0
    3.4100   -8.0310    3.8370 N   0  0  0  0  0  0  0  0  0  0  0  0
    2.6940   -9.1680    3.5290 C   0  0  0  0  0  0  0  0  0  0  0  0
    2.9790  -10.2370    2.6570 C   0  0  0  0  0  3  0  0  0  0  0  0
    4.6560   -7.6410    3.1950 C   0  0  0  0  0  2  0  0  0  0  0  0
    4.5640   -6.1940    2.7530 C   0  0  0  0  0  2  0  0  0  0  0  0
    5.0230   -5.2960    3.7560 O   0  0  0  0  0  0  0  0  0  0  0  0
    4.3860   -5.2730    4.9620 C   0  0  0  0  0  0  0  0  0  0  0  0
    4.8680   -4.2500    5.7900 C   0  0  0  0  0  3  0  0  0  0  0  0
    4.3740   -4.0810    7.0760 C   0  0  0  0  0  3  0  0  0  0  0  0
    3.4030   -4.9590    7.5050 C   0  0  0  0  0  3  0  0  0  0  0  0
    2.9150   -5.9570    6.7420 N   0  0  0  0  0  0  0  0  0  0  0  0
    3.3880   -6.1090    5.4730 C   0  0  0  0  0  0  0  0  0  0  0  0
    0.3680   -7.3070    5.8150 C   0  0  0  0  0  3  0  0  0  0  0  0
   -0.9610   -7.2650    5.0360 C   0  0  0  0  0  2  0  0  0  0  0  0
   -2.0860   -6.6690    5.8790 C   0  0  0  0  0  2  0  0  0  0  0  0
   -2.2410   -7.4040    7.2070 C   0  0  0  0  0  2  0  0  0  0  0  0
   -0.9300   -7.4380    7.9880 C   0  0  0  0  0  2  0  0  0  0  0  0
    0.2080   -8.0340    7.1590 C   0  0  0  0  0  2  0  0  0  0  0  0
    4.0250  -13.7520    3.2020 C   0  0  0  0  0  0  0  0  0  0  0  0
    3.2010  -13.6060    4.5170 C   0  0  0  0  0  2  0  0  0  0  0  0
    3.8350  -12.4820    5.3320 C   0  0  0  0  0  2  0  0  0  0  0  0
    5.2680  -12.4380    4.8570 C   0  0  0  0  0  2  0  0  0  0  0  0
    5.1240  -12.6650    3.3610 C   0  0  0  0  0  2  0  0  0  0  0  0
    4.6580  -16.0240    2.1100 N   0  0  0  0  0  0  0  0  0  0  0  0
    4.6630  -15.1780    3.1790 C   0  0  0  0  0  0  0  0  0  0  0  0
    5.1930  -15.6420    4.2010 O   0  0  0  0  0  0  0  0  0  0  0  0
    5.2770  -16.8040    2.2930 H   0  0  0  0  0  0  0  0  0  0  0  0
    2.5580  -16.2010   -1.5610 C   0  0  0  0  0  0  0  0  0  0  0  0
    3.7630  -15.4960   -1.4880 C   0  0  0  0  0  3  0  0  0  0  0  0
    4.4850  -15.4150   -0.2880 C   0  0  0  0  0  3  0  0  0  0  0  0
    4.0360  -16.0640    0.8540 C   0  0  0  0  0  0  0  0  0  0  0  0
    2.8180  -16.7540    0.7890 C   0  0  0  0  0  3  0  0  0  0  0  0
    2.0960  -16.8380   -0.4080 C   0  0  0  0  0  3  0  0  0  0  0  0
    1.7820  -15.2750   -3.7430 C   0  0  0  0  0  3  0  0  0  0  0  0
    1.8520  -16.2730   -2.8460 C   0  0  0  0  0  3  0  0  0  0  0  0
   -0.0630  -16.0250   -5.0430 O   0  0  0  0  0  1  0  0  0  0  0  0
    1.0430  -15.4200   -5.0730 C   0  0  0  0  0  0  0  0  0  0  0  0
    1.6570  -14.9040   -6.0510 O   0  0  0  0  0  0  0  0  0  0  0  0
  1 29  1  0  0  0  0
  2  1  1  0  0  0  0
  2  5  1  0  0  0  0
  3  2  2  0  0  0  0
  4  1  1  0  0  0  0
  5 13  2  0  0  0  0
  5  6  1  0  0  0  0
  6  7  2  0  0  0  0
  7  8  1  0  0  0  0
  8  9  1  0  0  0  0
  9 23  1  0  0  0  0
 10  9  2  0  0  0  0
 10 22  1  0  0  0  0
 11 10  1  0  0  0  0
 12 11  1  0  0  0  0
 12  8  2  0  0  0  0
 13 12  1  0  0  0  0
 14 11  1  0  0  0  0
 15 14  1  0  0  0  0
 15 16  1  0  0  0  0
 16 17  1  0  0  0  0
 17 22  2  0  0  0  0
 17 18  1  0  0  0  0
 18 19  2  0  0  0  0
 19 20  1  0  0  0  0
 21 20  2  0  0  0  0
 22 21  1  0  0  0  0
 23 28  1  0  0  0  0
 24 23  1  0  0  0  0
 24 25  1  0  0  0  0
 25 26  1  0  0  0  0
 26 27  1  0  0  0  0
 28 27  1  0  0  0  0
 29 33  1  0  0  0  0
 29 30  1  0  0  0  0
 30 31  1  0  0  0  0
 32 31  1  0  0  0  0
 33 32  1  0  0  0  0
 34 37  1  0  0  0  0
 34 35  1  0  0  0  0
 35 29  1  0  0  0  0
 35 36  2  0  0  0  0
 38 39  2  0  0  0  0
 38 43  1  0  0  0  0
 39 40  1  0  0  0  0
 40 41  2  0  0  0  0
 41 34  1  0  0  0  0
 42 41  1  0  0  0  0
 43 42  2  0  0  0  0
 44 45  2  0  0  0  0
 45 38  1  0  0  0  0
 47 46  1  0  0  0  0
 47 44  1  0  0  0  0
 48 47  2  0  0  0  0
M  END
>  <minimizedAffinity>
-8.1548624

$$$$
