
 OpenBabel09182209113D

 48 54  0  0  0  0  0  0  0  0999 V2000
    4.2960   -9.1260    4.7780 N   0  0  0  0  0  0  0  0  0  0  0  0
    4.8560  -10.3690    4.9190 C   0  0  0  0  0  0  0  0  0  0  0  0
    5.9720  -10.4620    5.4250 O   0  0  0  0  0  0  0  0  0  0  0  0
    4.9690   -8.4210    5.0520 H   0  0  0  0  0  0  0  0  0  0  0  0
    4.1420  -11.6100    4.5550 C   0  0  0  0  0  0  0  0  0  0  0  0
    3.4520  -12.2740    5.5670 C   0  0  0  0  0  3  0  0  0  0  0  0
    2.7890  -13.4780    5.3010 C   0  0  0  0  0  3  0  0  0  0  0  0
    2.8030  -14.0230    3.9970 C   0  0  0  0  0  0  0  0  0  0  0  0
    2.2550  -15.2130    3.4040 C   0  0  0  0  0  0  0  0  0  0  0  0
    2.5010  -15.1410    2.0240 C   0  0  0  0  0  0  0  0  0  0  0  0
    3.3460  -14.0650    1.8410 N   0  0  0  0  0  0  0  0  0  0  0  0
    3.5040  -13.3420    3.0050 C   0  0  0  0  0  0  0  0  0  0  0  0
    4.2180  -12.1570    3.2720 C   0  0  0  0  0  3  0  0  0  0  0  0
    4.0200  -13.7670    0.5870 C   0  0  0  0  0  2  0  0  0  0  0  0
    4.6590  -15.0320    0.0450 C   0  0  0  0  0  2  0  0  0  0  0  0
    3.7830  -15.7480   -0.8170 O   0  0  0  0  0  0  0  0  0  0  0  0
    2.5990  -16.2090   -0.3190 C   0  0  0  0  0  0  0  0  0  0  0  0
    1.9140  -17.0030   -1.2490 C   0  0  0  0  0  3  0  0  0  0  0  0
    0.6680  -17.5390   -0.9480 C   0  0  0  0  0  3  0  0  0  0  0  0
    0.1360  -17.2530    0.2890 C   0  0  0  0  0  3  0  0  0  0  0  0
    0.7600  -16.4930    1.2100 N   0  0  0  0  0  0  0  0  0  0  0  0
    1.9900  -15.9830    0.9200 C   0  0  0  0  0  0  0  0  0  0  0  0
    1.5240  -16.3250    4.1350 C   0  0  0  0  0  3  0  0  0  0  0  0
    2.4120  -17.0290    5.1800 C   0  0  0  0  0  2  0  0  0  0  0  0
    1.6660  -18.1650    5.8740 C   0  0  0  0  0  2  0  0  0  0  0  0
    0.3560  -17.6820    6.4900 C   0  0  0  0  0  2  0  0  0  0  0  0
   -0.5320  -16.9940    5.4560 C   0  0  0  0  0  2  0  0  0  0  0  0
    0.1990  -15.8520    4.7520 C   0  0  0  0  0  2  0  0  0  0  0  0
    2.9650   -8.6590    4.3370 C   0  0  0  0  0  0  0  0  0  0  0  0
    2.9430   -7.1050    4.2210 C   0  0  0  0  0  2  0  0  0  0  0  0
    1.9040   -6.5860    5.2120 C   0  0  0  0  0  2  0  0  0  0  0  0
    0.9510   -7.7440    5.3940 C   0  0  0  0  0  2  0  0  0  0  0  0
    1.8890   -8.9400    5.4230 C   0  0  0  0  0  2  0  0  0  0  0  0
    3.1800   -9.0740    1.7810 N   0  0  0  0  0  0  0  0  0  0  0  0
    2.5270   -9.2590    2.9630 C   0  0  0  0  0  0  0  0  0  0  0  0
    1.4870   -9.9330    2.8780 O   0  0  0  0  0  0  0  0  0  0  0  0
    2.7980   -9.6990    1.0810 H   0  0  0  0  0  0  0  0  0  0  0  0
    6.1650   -6.4690    0.2910 C   0  0  0  0  0  0  0  0  0  0  0  0
    6.4740   -7.3480    1.3320 C   0  0  0  0  0  3  0  0  0  0  0  0
    5.5090   -8.2240    1.8510 C   0  0  0  0  0  3  0  0  0  0  0  0
    4.2270   -8.2640    1.3190 C   0  0  0  0  0  0  0  0  0  0  0  0
    3.9100   -7.3680    0.2890 C   0  0  0  0  0  3  0  0  0  0  0  0
    4.8700   -6.4940   -0.2320 C   0  0  0  0  0  3  0  0  0  0  0  0
    8.0740   -4.8810    0.5230 C   0  0  0  0  0  3  0  0  0  0  0  0
    7.2160   -5.5870   -0.2320 C   0  0  0  0  0  3  0  0  0  0  0  0
    9.5760   -3.0410    0.6320 O   0  0  0  0  0  1  0  0  0  0  0  0
    9.1600   -3.9920   -0.0830 C   0  0  0  0  0  0  0  0  0  0  0  0
    9.4990   -4.3340   -1.2530 O   0  0  0  0  0  0  0  0  0  0  0  0
  1  2  1  0  0  0  0
  1  4  1  0  0  0  0
  2  3  2  0  0  0  0
  5  2  1  0  0  0  0
  5  6  1  0  0  0  0
  7  6  2  0  0  0  0
  8  7  1  0  0  0  0
  9  8  1  0  0  0  0
  9 23  1  0  0  0  0
 10  9  2  0  0  0  0
 11 10  1  0  0  0  0
 11 12  1  0  0  0  0
 12 13  1  0  0  0  0
 12  8  2  0  0  0  0
 13  5  2  0  0  0  0
 14 11  1  0  0  0  0
 15 14  1  0  0  0  0
 16 17  1  0  0  0  0
 16 15  1  0  0  0  0
 17 22  1  0  0  0  0
 18 19  1  0  0  0  0
 18 17  2  0  0  0  0
 19 20  2  0  0  0  0
 20 21  1  0  0  0  0
 22 21  2  0  0  0  0
 22 10  1  0  0  0  0
 23 28  1  0  0  0  0
 23 24  1  0  0  0  0
 24 25  1  0  0  0  0
 25 26  1  0  0  0  0
 27 26  1  0  0  0  0
 28 27  1  0  0  0  0
 29  1  1  0  0  0  0
 29 33  1  0  0  0  0
 30 29  1  0  0  0  0
 30 31  1  0  0  0  0
 31 32  1  0  0  0  0
 32 33  1  0  0  0  0
 34 35  1  0  0  0  0
 35 29  1  0  0  0  0
 36 35  2  0  0  0  0
 37 34  1  0  0  0  0
 38 39  1  0  0  0  0
 39 40  2  0  0  0  0
 41 34  1  0  0  0  0
 41 40  1  0  0  0  0
 42 41  2  0  0  0  0
 43 42  1  0  0  0  0
 43 38  2  0  0  0  0
 45 38  1  0  0  0  0
 45 44  2  0  0  0  0
 47 44  1  0  0  0  0
 47 46  1  0  0  0  0
 48 47  2  0  0  0  0
M  END
>  <minimizedAffinity>
-8.22502232

$$$$
