
 OpenBabel09182209113D

 48 54  0  0  0  0  0  0  0  0999 V2000
    2.4330  -13.4290    3.1000 N   0  0  0  0  0  0  0  0  0  0  0  0
    1.7470  -12.3400    2.6320 C   0  0  0  0  0  0  0  0  0  0  0  0
    0.5750  -12.4800    2.2870 O   0  0  0  0  0  0  0  0  0  0  0  0
    1.8580  -14.2570    3.0020 H   0  0  0  0  0  0  0  0  0  0  0  0
    2.3350  -10.9850    2.5930 C   0  0  0  0  0  0  0  0  0  0  0  0
    3.0520  -10.6280    1.4530 C   0  0  0  0  0  3  0  0  0  0  0  0
    3.6720   -9.3770    1.3680 C   0  0  0  0  0  3  0  0  0  0  0  0
    3.5620   -8.4560    2.4350 C   0  0  0  0  0  0  0  0  0  0  0  0
    4.0730   -7.1330    2.6720 C   0  0  0  0  0  0  0  0  0  0  0  0
    3.5130   -6.6800    3.8770 C   0  0  0  0  0  0  0  0  0  0  0  0
    2.8740   -7.7690    4.4350 N   0  0  0  0  0  0  0  0  0  0  0  0
    2.8430   -8.8390    3.5650 C   0  0  0  0  0  0  0  0  0  0  0  0
    2.2590  -10.1150    3.6840 C   0  0  0  0  0  3  0  0  0  0  0  0
    2.3470   -7.7930    5.7910 C   0  0  0  0  0  2  0  0  0  0  0  0
    3.3920   -7.2520    6.7480 C   0  0  0  0  0  2  0  0  0  0  0  0
    3.2740   -5.8460    6.9310 O   0  0  0  0  0  0  0  0  0  0  0  0
    3.4160   -5.0260    5.8500 C   0  0  0  0  0  0  0  0  0  0  0  0
    3.4050   -3.6720    6.2150 C   0  0  0  0  0  3  0  0  0  0  0  0
    3.5010   -2.6750    5.2540 C   0  0  0  0  0  3  0  0  0  0  0  0
    3.5970   -3.0670    3.9380 C   0  0  0  0  0  3  0  0  0  0  0  0
    3.6090   -4.3560    3.5450 N   0  0  0  0  0  0  0  0  0  0  0  0
    3.5330   -5.3340    4.4910 C   0  0  0  0  0  0  0  0  0  0  0  0
    5.0200   -6.3620    1.7700 C   0  0  0  0  0  3  0  0  0  0  0  0
    6.4560   -6.9220    1.8040 C   0  0  0  0  0  2  0  0  0  0  0  0
    7.3950   -6.1090    0.9180 C   0  0  0  0  0  2  0  0  0  0  0  0
    6.8710   -6.0070   -0.5110 C   0  0  0  0  0  2  0  0  0  0  0  0
    5.4530   -5.4420   -0.5510 C   0  0  0  0  0  2  0  0  0  0  0  0
    4.4980   -6.2450    0.3300 C   0  0  0  0  0  2  0  0  0  0  0  0
    3.7750  -13.6030    3.6940 C   0  0  0  0  0  0  0  0  0  0  0  0
    3.7180  -13.4000    5.2390 C   0  0  0  0  0  2  0  0  0  0  0  0
    4.6070  -12.2070    5.5770 C   0  0  0  0  0  2  0  0  0  0  0  0
    5.6010  -12.1480    4.4410 C   0  0  0  0  0  2  0  0  0  0  0  0
    4.7380  -12.4730    3.2330 C   0  0  0  0  0  2  0  0  0  0  0  0
    4.4730  -15.5970    2.1810 N   0  0  0  0  0  0  0  0  0  0  0  0
    4.3980  -15.0070    3.4070 C   0  0  0  0  0  0  0  0  0  0  0  0
    4.8390  -15.6980    4.3400 O   0  0  0  0  0  0  0  0  0  0  0  0
    5.0670  -16.4160    2.2340 H   0  0  0  0  0  0  0  0  0  0  0  0
    2.6990  -14.9660   -1.6110 C   0  0  0  0  0  0  0  0  0  0  0  0
    3.7050  -14.1040   -1.1680 C   0  0  0  0  0  3  0  0  0  0  0  0
    4.3140  -14.2820    0.0840 C   0  0  0  0  0  3  0  0  0  0  0  0
    3.9540  -15.3440    0.9020 C   0  0  0  0  0  0  0  0  0  0  0  0
    2.9310  -16.1980    0.4690 C   0  0  0  0  0  3  0  0  0  0  0  0
    2.3230  -16.0240   -0.7790 C   0  0  0  0  0  3  0  0  0  0  0  0
    1.6890  -15.7230   -3.7620 C   0  0  0  0  0  3  0  0  0  0  0  0
    2.1090  -14.7500   -2.9370 C   0  0  0  0  0  3  0  0  0  0  0  0
    1.7650  -14.7590   -5.9340 O   0  0  0  0  0  0  0  0  0  0  0  0
    1.0670  -15.4300   -5.1270 C   0  0  0  0  0  0  0  0  0  0  0  0
   -0.0970  -15.9070   -5.2640 O   0  0  0  0  0  1  0  0  0  0  0  0
  1 29  1  0  0  0  0
  2  1  1  0  0  0  0
  3  2  2  0  0  0  0
  4  1  1  0  0  0  0
  5  2  1  0  0  0  0
  5 13  1  0  0  0  0
  6  5  2  0  0  0  0
  7  6  1  0  0  0  0
  7  8  2  0  0  0  0
  8  9  1  0  0  0  0
  8 12  1  0  0  0  0
  9 10  2  0  0  0  0
 10 11  1  0  0  0  0
 10 22  1  0  0  0  0
 11 14  1  0  0  0  0
 12 13  2  0  0  0  0
 12 11  1  0  0  0  0
 14 15  1  0  0  0  0
 15 16  1  0  0  0  0
 17 18  1  0  0  0  0
 17 16  1  0  0  0  0
 19 18  2  0  0  0  0
 20 19  1  0  0  0  0
 21 20  2  0  0  0  0
 21 22  1  0  0  0  0
 22 17  2  0  0  0  0
 23 24  1  0  0  0  0
 23  9  1  0  0  0  0
 25 24  1  0  0  0  0
 26 25  1  0  0  0  0
 27 26  1  0  0  0  0
 27 28  1  0  0  0  0
 28 23  1  0  0  0  0
 29 30  1  0  0  0  0
 30 31  1  0  0  0  0
 32 31  1  0  0  0  0
 33 29  1  0  0  0  0
 33 32  1  0  0  0  0
 34 37  1  0  0  0  0
 34 35  1  0  0  0  0
 35 29  1  0  0  0  0
 35 36  2  0  0  0  0
 38 39  2  0  0  0  0
 38 43  1  0  0  0  0
 39 40  1  0  0  0  0
 40 41  2  0  0  0  0
 41 34  1  0  0  0  0
 42 41  1  0  0  0  0
 43 42  2  0  0  0  0
 44 45  2  0  0  0  0
 45 38  1  0  0  0  0
 46 47  2  0  0  0  0
 47 44  1  0  0  0  0
 48 47  1  0  0  0  0
M  END
>  <minimizedAffinity>
-9.48142338

$$$$
