
 OpenBabel09132200073D

 39 41  0  0  1  0  0  0  0  0999 V2000
    0.4070    2.1440   -6.7430 C   0  0  2  0  0  3  0  0  0  0  0  0
   -0.2800    1.0570   -7.0420 N   0  0  0  0  0  0  0  0  0  0  0  0
   -1.4110    0.4860   -5.9870 S   0  0  0  0  0  0  0  0  0  0  0  0
   -2.7430    0.8310   -6.4190 O   0  0  0  0  0  0  0  0  0  0  0  0
   -1.0700   -0.8840   -5.6660 O   0  0  0  0  0  0  0  0  0  0  0  0
   -1.0220    1.4220   -4.5230 C   0  0  0  0  0  0  0  0  0  0  0  0
   -2.3040    2.2260   -3.5080 C   0  0  0  0  0  3  0  0  0  0  0  0
   -1.8120    3.4790   -2.3030 C   0  0  0  0  0  0  0  0  0  0  0  0
   -0.0490    3.9490   -2.1270 C   0  0  0  0  0  3  0  0  0  0  0  0
    1.1890    3.2300   -3.2320 C   0  0  0  0  0  3  0  0  0  0  0  0
    0.7040    1.9720   -4.4300 C   0  0  0  0  0  0  0  0  0  0  0  0
    1.3830    1.9010   -5.7110 N   0  0  0  0  0  0  0  0  0  0  0  0
    0.2970    0.2690   -7.2950 H   0  0  0  0  0  0  0  0  0  0  0  0
    2.2180    2.4920   -5.7030 H   0  0  0  0  0  0  0  0  0  0  0  0
    1.2700    4.9810   -7.8940 N   0  0  0  0  0  0  0  0  0  0  0  0
    0.7710    4.6340   -6.4860 C   0  0  0  0  0  0  0  0  0  0  0  0
    1.0330    5.2060   -5.4370 O   0  0  0  0  0  0  0  0  0  0  0  0
   -0.2200    3.5010   -6.5300 C   0  0  1  0  0  3  0  0  0  0  0  0
   -1.3150    3.8910   -7.2120 C   0  0  1  0  0  3  0  0  0  0  0  0
   -1.3500    5.2530   -7.7590 C   0  0  2  0  0  3  0  0  0  0  0  0
   -2.5550    5.9440   -7.9100 C   0  0  0  0  0  3  0  0  0  0  0  0
   -2.5350    7.2490   -8.3810 C   0  0  0  0  0  3  0  0  0  0  0  0
   -1.3100    7.8160   -8.6760 C   0  0  0  0  0  3  0  0  0  0  0  0
   -0.1280    7.1690   -8.5580 N   0  0  0  0  0  0  0  0  0  0  0  0
   -0.1290    5.8690   -8.1550 C   0  0  0  0  0  0  0  0  0  0  0  0
   -2.3060    3.0390   -7.6470 O   0  0  0  0  0  0  0  0  0  0  0  0
   -2.4670    2.3620   -6.9640 H   0  0  0  0  0  0  0  0  0  0  0  0
    2.9530    4.5490   -9.0850 C   0  0  0  0  0  1  0  0  0  0  0  0
    3.5500    3.0530   -9.8350 C   0  0  0  0  0  2  0  0  0  0  0  0
    3.8860    0.5240   -9.4880 C   0  0  0  0  0  1  0  0  0  0  0  0
    3.2180    1.8000   -8.9760 C   0  0  0  0  0  3  0  0  0  0  0  0
    3.6480    2.0510   -7.5260 C   0  0  0  0  0  1  0  0  0  0  0  0
   -2.6640    4.1350   -1.4630 O   0  0  0  0  0  0  0  0  0  0  0  0
   -2.6080    3.7700   -0.0990 C   0  0  0  0  0  2  0  0  0  0  0  0
   -3.8880    3.4210    0.6790 C   0  0  0  0  0  0  0  0  0  0  0  0
   -4.5340    4.3380    1.1980 O   0  0  0  0  0  0  0  0  0  0  0  0
   -4.2880    2.0980    0.7560 N   0  0  0  0  0  0  0  0  0  0  0  0
   -3.5780    0.9860    0.1450 C   0  0  0  0  0  1  0  0  0  0  0  0
   -5.4010    1.7470    1.6230 C   0  0  0  0  0  1  0  0  0  0  0  0
  1  2  1  1  0  0  0
  1 18  1  0  0  0  0
  1 12  1  0  0  0  0
  2  3  1  0  0  0  0
  3  5  2  0  0  0  0
  3  6  1  0  0  0  0
  4  3  2  0  0  0  0
  6 11  2  0  0  0  0
  6  7  1  0  0  0  0
  7  8  2  0  0  0  0
  8  9  1  0  0  0  0
  8 33  1  0  0  0  0
 10  9  2  0  0  0  0
 11 10  1  0  0  0  0
 12 14  1  0  0  0  0
 12 11  1  0  0  0  0
 13  2  1  0  0  0  0
 15 16  1  0  0  0  0
 16 17  2  0  0  0  0
 18 16  1  6  0  0  0
 19 26  1  6  0  0  0
 19 18  1  0  0  0  0
 20 21  1  6  0  0  0
 20 19  1  0  0  0  0
 22 21  2  0  0  0  0
 23 24  2  0  0  0  0
 23 22  1  0  0  0  0
 24 25  1  0  0  0  0
 25 15  2  0  0  0  0
 25 20  1  0  0  0  0
 26 27  1  0  0  0  0
 29 28  1  0  0  0  0
 29 31  1  0  0  0  0
 30 31  1  0  0  0  0
 31 32  1  0  0  0  0
 33 34  1  0  0  0  0
 34 35  1  0  0  0  0
 35 37  1  0  0  0  0
 35 36  2  0  0  0  0
 37 39  1  0  0  0  0
 38 37  1  0  0  0  0
M  END
>  <minimizedAffinity>
105.831169

$$$$
