
 OpenBabel09122218333D

 22 23  0  0  0  0  0  0  0  0999 V2000
    5.7770   -7.3040    0.9580 C   0  0  0  0  0  0  0  0  0  0  0  0
    5.2440   -7.8410   -0.2030 C   0  0  0  0  0  3  0  0  0  0  0  0
    3.9390   -8.3040    0.0810 C   0  0  0  0  0  3  0  0  0  0  0  0
    3.6960   -8.0460    1.4110 C   0  0  0  0  0  3  0  0  0  0  0  0
    4.8080   -7.4140    1.9400 N   0  0  0  0  0  0  0  0  0  0  0  0
    7.1070   -5.3790    0.9200 C   0  0  0  0  0  2  0  0  0  0  0  0
    7.0440   -6.6910    1.2390 C   0  0  0  0  0  0  0  0  0  0  0  0
    7.8290   -7.5260    1.7630 O   0  0  0  0  0  0  0  0  0  0  0  0
    8.2250   -4.3910    1.1040 C   0  0  0  0  0  0  0  0  0  0  0  0
    8.4590   -3.7370    2.1180 O   0  0  0  0  0  0  0  0  0  0  0  0
   10.3210   -3.5980    0.1260 O   0  0  0  0  0  1  0  0  0  0  0  0
    9.2050   -4.1840   -0.0910 C   0  0  0  0  0  0  0  0  0  0  0  0
    8.8290   -4.6280   -1.2320 O   0  0  0  0  0  0  0  0  0  0  0  0
    4.9590   -7.0260    3.3390 C   0  0  0  0  0  2  0  0  0  0  0  0
    4.1010   -5.8310    3.7070 C   0  0  0  0  0  0  0  0  0  0  0  0
    4.4010   -4.5520    3.2120 C   0  0  0  0  0  3  0  0  0  0  0  0
    3.6070   -3.4550    3.5540 C   0  0  0  0  0  3  0  0  0  0  0  0
    2.5100   -3.6360    4.3920 C   0  0  0  0  0  0  0  0  0  0  0  0
    2.1950   -4.8940    4.8900 C   0  0  0  0  0  3  0  0  0  0  0  0
    2.9890   -5.9910    4.5490 C   0  0  0  0  0  3  0  0  0  0  0  0
    1.7140   -2.5840    4.7460 O   0  0  0  0  0  0  0  0  0  0  0  0
    2.0610   -1.7920    4.3110 H   0  0  0  0  0  0  0  0  0  0  0  0
  1  7  1  0  0  0  0
  1  5  1  0  0  0  0
  2  3  1  0  0  0  0
  2  1  2  0  0  0  0
  3  4  2  0  0  0  0
  4  5  1  0  0  0  0
  5 14  1  0  0  0  0
  6  9  1  0  0  0  0
  6  7  1  0  0  0  0
  7  8  2  0  0  0  0
  9 10  2  0  0  0  0
 12 11  1  0  0  0  0
 12  9  1  0  0  0  0
 13 12  2  0  0  0  0
 14 15  1  0  0  0  0
 15 20  1  0  0  0  0
 16 17  1  0  0  0  0
 16 15  2  0  0  0  0
 17 18  2  0  0  0  0
 18 21  1  0  0  0  0
 18 19  1  0  0  0  0
 20 19  2  0  0  0  0
 22 21  1  0  0  0  0
M  END
>  <minimizedAffinity>
-6.74304867

$$$$

 OpenBabel09122218333D

 22 23  0  0  0  0  0  0  0  0999 V2000
    4.3750   -7.2490    0.8600 C   0  0  0  0  0  0  0  0  0  0  0  0
    3.7050   -8.3500    0.3510 C   0  0  0  0  0  3  0  0  0  0  0  0
    3.2750   -9.1480    1.4350 C   0  0  0  0  0  3  0  0  0  0  0  0
    3.6910   -8.5240    2.5900 C   0  0  0  0  0  3  0  0  0  0  0  0
    4.3410   -7.3540    2.2400 N   0  0  0  0  0  0  0  0  0  0  0  0
    6.3440   -6.2380    0.1000 C   0  0  0  0  0  2  0  0  0  0  0  0
    5.0020   -6.1270    0.2220 C   0  0  0  0  0  0  0  0  0  0  0  0
    4.1370   -5.2780   -0.1210 O   0  0  0  0  0  0  0  0  0  0  0  0
    7.3370   -5.3110   -0.5450 C   0  0  0  0  0  0  0  0  0  0  0  0
    7.3450   -4.9570   -1.7220 O   0  0  0  0  0  0  0  0  0  0  0  0
    8.1730   -4.4280    1.5760 O   0  0  0  0  0  1  0  0  0  0  0  0
    8.4560   -4.7140    0.3620 C   0  0  0  0  0  0  0  0  0  0  0  0
    9.6100   -4.5550   -0.1710 O   0  0  0  0  0  0  0  0  0  0  0  0
    4.9760   -6.4380    3.1840 C   0  0  0  0  0  2  0  0  0  0  0  0
    4.0450   -5.3310    3.6350 C   0  0  0  0  0  0  0  0  0  0  0  0
    2.9330   -5.6140    4.4440 C   0  0  0  0  0  3  0  0  0  0  0  0
    2.0770   -4.5900    4.8570 C   0  0  0  0  0  3  0  0  0  0  0  0
    2.3340   -3.2800    4.4620 C   0  0  0  0  0  0  0  0  0  0  0  0
    3.4300   -2.9790    3.6630 C   0  0  0  0  0  3  0  0  0  0  0  0
    4.2850   -4.0030    3.2500 C   0  0  0  0  0  3  0  0  0  0  0  0
    1.5170   -2.2550    4.8480 O   0  0  0  0  0  0  0  0  0  0  0  0
    0.8160   -2.6300    5.4010 H   0  0  0  0  0  0  0  0  0  0  0  0
  1  5  1  0  0  0  0
  2  1  2  0  0  0  0
  2  3  1  0  0  0  0
  3  4  2  0  0  0  0
  5  4  1  0  0  0  0
  5 14  1  0  0  0  0
  6  7  1  0  0  0  0
  7  1  1  0  0  0  0
  8  7  2  0  0  0  0
  9  6  1  0  0  0  0
  9 12  1  0  0  0  0
 10  9  2  0  0  0  0
 12 11  1  0  0  0  0
 13 12  2  0  0  0  0
 14 15  1  0  0  0  0
 15 16  1  0  0  0  0
 16 17  2  0  0  0  0
 18 21  1  0  0  0  0
 18 17  1  0  0  0  0
 19 18  2  0  0  0  0
 20 15  2  0  0  0  0
 20 19  1  0  0  0  0
 21 22  1  0  0  0  0
M  END
>  <minimizedAffinity>
-6.73106623

$$$$

 OpenBabel09122218333D

 22 23  0  0  0  0  0  0  0  0999 V2000
   10.1580   -3.1100    0.8550 C   0  0  0  0  0  0  0  0  0  0  0  0
   10.1570   -2.4820    2.0900 C   0  0  0  0  0  3  0  0  0  0  0  0
    8.9240   -2.7530    2.7250 C   0  0  0  0  0  3  0  0  0  0  0  0
    8.1890   -3.5410    1.8670 C   0  0  0  0  0  3  0  0  0  0  0  0
    8.9520   -3.7780    0.7370 N   0  0  0  0  0  0  0  0  0  0  0  0
   11.2270   -2.0610   -0.9420 C   0  0  0  0  0  2  0  0  0  0  0  0
   11.1430   -3.1780   -0.1860 C   0  0  0  0  0  0  0  0  0  0  0  0
   11.7490   -4.2820   -0.1460 O   0  0  0  0  0  0  0  0  0  0  0  0
   12.1540   -1.7290   -2.0790 C   0  0  0  0  0  0  0  0  0  0  0  0
   12.8420   -2.5250   -2.7140 O   0  0  0  0  0  0  0  0  0  0  0  0
   13.3490    0.3850   -2.3640 O   0  0  0  0  0  1  0  0  0  0  0  0
   12.2420   -0.2370   -2.5220 C   0  0  0  0  0  0  0  0  0  0  0  0
   11.1870    0.2790   -3.0330 O   0  0  0  0  0  0  0  0  0  0  0  0
    8.5000   -4.5290   -0.4310 C   0  0  0  0  0  2  0  0  0  0  0  0
    7.5090   -5.6190   -0.0730 C   0  0  0  0  0  0  0  0  0  0  0  0
    7.7740   -6.5150    0.9740 C   0  0  0  0  0  3  0  0  0  0  0  0
    6.8580   -7.5180    1.2990 C   0  0  0  0  0  3  0  0  0  0  0  0
    5.6720   -7.6240    0.5780 C   0  0  0  0  0  0  0  0  0  0  0  0
    5.3900   -6.7450   -0.4610 C   0  0  0  0  0  3  0  0  0  0  0  0
    6.3060   -5.7440   -0.7860 C   0  0  0  0  0  3  0  0  0  0  0  0
    4.7550   -8.5930    0.8690 O   0  0  0  0  0  0  0  0  0  0  0  0
    5.0970   -9.1080    1.6150 H   0  0  0  0  0  0  0  0  0  0  0  0
  1  2  2  0  0  0  0
  2  3  1  0  0  0  0
  4  3  2  0  0  0  0
  5  1  1  0  0  0  0
  5  4  1  0  0  0  0
  6  7  1  0  0  0  0
  7  8  2  0  0  0  0
  7  1  1  0  0  0  0
  9  6  1  0  0  0  0
 10  9  2  0  0  0  0
 12 11  1  0  0  0  0
 12  9  1  0  0  0  0
 13 12  2  0  0  0  0
 14 15  1  0  0  0  0
 14  5  1  0  0  0  0
 15 16  1  0  0  0  0
 16 17  2  0  0  0  0
 18 21  1  0  0  0  0
 18 17  1  0  0  0  0
 19 18  2  0  0  0  0
 20 19  1  0  0  0  0
 20 15  2  0  0  0  0
 21 22  1  0  0  0  0
M  END
>  <minimizedAffinity>
-6.6848917

$$$$

 OpenBabel09122218333D

 22 23  0  0  0  0  0  0  0  0999 V2000
   11.4300   -2.7930   -1.2500 C   0  0  0  0  0  0  0  0  0  0  0  0
   12.6290   -3.4190   -1.5480 C   0  0  0  0  0  3  0  0  0  0  0  0
   13.3500   -2.5940   -2.4410 C   0  0  0  0  0  3  0  0  0  0  0  0
   12.5780   -1.4780   -2.6760 C   0  0  0  0  0  3  0  0  0  0  0  0
   11.4180   -1.5890   -1.9310 N   0  0  0  0  0  0  0  0  0  0  0  0
   10.4140   -2.6780    0.8550 C   0  0  0  0  0  2  0  0  0  0  0  0
   10.3350   -3.1710   -0.4010 C   0  0  0  0  0  0  0  0  0  0  0  0
    9.5060   -3.8710   -1.0410 O   0  0  0  0  0  0  0  0  0  0  0  0
    9.4540   -2.8050    2.0060 C   0  0  0  0  0  0  0  0  0  0  0  0
    8.4400   -3.4980    2.0350 O   0  0  0  0  0  0  0  0  0  0  0  0
    9.2570   -0.8460    3.4560 O   0  0  0  0  0  0  0  0  0  0  0  0
    9.7800   -2.0040    3.3040 C   0  0  0  0  0  0  0  0  0  0  0  0
   10.5540   -2.5670    4.1540 O   0  0  0  0  0  1  0  0  0  0  0  0
   10.3180   -0.6280   -1.9520 C   0  0  0  0  0  2  0  0  0  0  0  0
   10.5750    0.5670   -1.0550 C   0  0  0  0  0  0  0  0  0  0  0  0
   11.4890    1.5640   -1.4310 C   0  0  0  0  0  3  0  0  0  0  0  0
   11.7220    2.6630   -0.6000 C   0  0  0  0  0  3  0  0  0  0  0  0
   11.0380    2.7670    0.6080 C   0  0  0  0  0  0  0  0  0  0  0  0
   10.1270    1.7930    0.9960 C   0  0  0  0  0  3  0  0  0  0  0  0
    9.8950    0.6940    0.1670 C   0  0  0  0  0  3  0  0  0  0  0  0
   11.2420    3.8280    1.4430 O   0  0  0  0  0  0  0  0  0  0  0  0
   11.8920    4.4130    1.0240 H   0  0  0  0  0  0  0  0  0  0  0  0
  1  7  1  0  0  0  0
  2  1  2  0  0  0  0
  3  2  1  0  0  0  0
  4  3  2  0  0  0  0
  4  5  1  0  0  0  0
  5  1  1  0  0  0  0
  6  9  1  0  0  0  0
  7  6  1  0  0  0  0
  8  7  2  0  0  0  0
  9 10  2  0  0  0  0
  9 12  1  0  0  0  0
 12 11  2  0  0  0  0
 12 13  1  0  0  0  0
 14  5  1  0  0  0  0
 14 15  1  0  0  0  0
 15 20  1  0  0  0  0
 16 15  2  0  0  0  0
 16 17  1  0  0  0  0
 17 18  2  0  0  0  0
 18 19  1  0  0  0  0
 18 21  1  0  0  0  0
 20 19  2  0  0  0  0
 22 21  1  0  0  0  0
M  END
>  <minimizedAffinity>
-6.5941081

$$$$

 OpenBabel09122218333D

 22 23  0  0  0  0  0  0  0  0999 V2000
    8.8180   -3.5450    0.9650 C   0  0  0  0  0  0  0  0  0  0  0  0
    8.4580   -2.9570    2.1660 C   0  0  0  0  0  3  0  0  0  0  0  0
    9.2600   -1.8090    2.3560 C   0  0  0  0  0  3  0  0  0  0  0  0
   10.1000   -1.7150    1.2690 C   0  0  0  0  0  3  0  0  0  0  0  0
    9.8130   -2.7600    0.4090 N   0  0  0  0  0  0  0  0  0  0  0  0
    7.5410   -5.5040    1.0380 C   0  0  0  0  0  2  0  0  0  0  0  0
    8.3310   -4.7090    0.2820 C   0  0  0  0  0  0  0  0  0  0  0  0
    8.7330   -4.7180   -0.9120 O   0  0  0  0  0  0  0  0  0  0  0  0
    6.8100   -6.7680    0.6760 C   0  0  0  0  0  0  0  0  0  0  0  0
    6.9860   -7.8780    1.1730 O   0  0  0  0  0  0  0  0  0  0  0  0
    5.5470   -7.6510   -1.2220 O   0  0  0  0  0  0  0  0  0  0  0  0
    5.7030   -6.6690   -0.4170 C   0  0  0  0  0  0  0  0  0  0  0  0
    5.0010   -5.5980   -0.4350 O   0  0  0  0  0  1  0  0  0  0  0  0
   10.5280   -3.0360   -0.8340 C   0  0  0  0  0  2  0  0  0  0  0  0
   11.1350   -1.7890   -1.4450 C   0  0  0  0  0  0  0  0  0  0  0  0
   10.3280   -0.6990   -1.8050 C   0  0  0  0  0  3  0  0  0  0  0  0
   10.8930    0.4480   -2.3680 C   0  0  0  0  0  3  0  0  0  0  0  0
   12.2690    0.5060   -2.5700 C   0  0  0  0  0  0  0  0  0  0  0  0
   13.0860   -0.5610   -2.2180 C   0  0  0  0  0  3  0  0  0  0  0  0
   12.5210   -1.7070   -1.6560 C   0  0  0  0  0  3  0  0  0  0  0  0
   12.8540    1.6120   -3.1180 O   0  0  0  0  0  0  0  0  0  0  0  0
   12.1540    2.2590   -3.2930 H   0  0  0  0  0  0  0  0  0  0  0  0
  1  2  2  0  0  0  0
  2  3  1  0  0  0  0
  4  3  2  0  0  0  0
  5  1  1  0  0  0  0
  5  4  1  0  0  0  0
  7  1  1  0  0  0  0
  7  6  1  0  0  0  0
  8  7  2  0  0  0  0
  9  6  1  0  0  0  0
  9 10  2  0  0  0  0
 11 12  2  0  0  0  0
 12  9  1  0  0  0  0
 13 12  1  0  0  0  0
 14  5  1  0  0  0  0
 15 14  1  0  0  0  0
 16 15  2  0  0  0  0
 17 16  1  0  0  0  0
 18 17  2  0  0  0  0
 18 19  1  0  0  0  0
 19 20  2  0  0  0  0
 20 15  1  0  0  0  0
 21 18  1  0  0  0  0
 22 21  1  0  0  0  0
M  END
>  <minimizedAffinity>
-6.54052544

$$$$

 OpenBabel09122218333D

 22 23  0  0  0  0  0  0  0  0999 V2000
    3.7830   -5.9450    4.0700 C   0  0  0  0  0  0  0  0  0  0  0  0
    3.3970   -7.1260    4.6820 C   0  0  0  0  0  3  0  0  0  0  0  0
    2.2450   -6.8670    5.4590 C   0  0  0  0  0  3  0  0  0  0  0  0
    1.9470   -5.5310    5.3110 C   0  0  0  0  0  3  0  0  0  0  0  0
    2.8710   -4.9750    4.4440 N   0  0  0  0  0  0  0  0  0  0  0  0
    4.7240   -6.1640    1.9380 C   0  0  0  0  0  2  0  0  0  0  0  0
    4.8620   -5.6360    3.1750 C   0  0  0  0  0  0  0  0  0  0  0  0
    5.7070   -4.8960    3.7460 O   0  0  0  0  0  0  0  0  0  0  0  0
    5.6020   -6.0290    0.7250 C   0  0  0  0  0  0  0  0  0  0  0  0
    5.2290   -5.7910   -0.4210 O   0  0  0  0  0  0  0  0  0  0  0  0
    7.5740   -7.1740    1.6080 O   0  0  0  0  0  1  0  0  0  0  0  0
    7.1410   -6.1790    0.9320 C   0  0  0  0  0  0  0  0  0  0  0  0
    7.8870   -5.2870    0.3950 O   0  0  0  0  0  0  0  0  0  0  0  0
    2.9230   -3.5630    4.0760 C   0  0  0  0  0  2  0  0  0  0  0  0
    3.1180   -2.6570    5.2760 C   0  0  0  0  0  0  0  0  0  0  0  0
    2.0790   -1.8270    5.7250 C   0  0  0  0  0  3  0  0  0  0  0  0
    2.2630   -0.9930    6.8310 C   0  0  0  0  0  3  0  0  0  0  0  0
    3.4900   -0.9910    7.4910 C   0  0  0  0  0  0  0  0  0  0  0  0
    4.5300   -1.8060    7.0630 C   0  0  0  0  0  3  0  0  0  0  0  0
    4.3450   -2.6390    5.9580 C   0  0  0  0  0  3  0  0  0  0  0  0
    3.7040   -0.1880    8.5750 O   0  0  0  0  0  0  0  0  0  0  0  0
    2.8850    0.3020    8.7450 H   0  0  0  0  0  0  0  0  0  0  0  0
  1  5  1  0  0  0  0
  1  2  2  0  0  0  0
  2  3  1  0  0  0  0
  4  3  2  0  0  0  0
  5  4  1  0  0  0  0
  6  7  1  0  0  0  0
  7  8  2  0  0  0  0
  7  1  1  0  0  0  0
  9 12  1  0  0  0  0
  9  6  1  0  0  0  0
 10  9  2  0  0  0  0
 12 11  1  0  0  0  0
 13 12  2  0  0  0  0
 14  5  1  0  0  0  0
 14 15  1  0  0  0  0
 15 16  2  0  0  0  0
 15 20  1  0  0  0  0
 16 17  1  0  0  0  0
 17 18  2  0  0  0  0
 18 21  1  0  0  0  0
 19 18  1  0  0  0  0
 20 19  2  0  0  0  0
 21 22  1  0  0  0  0
M  END
>  <minimizedAffinity>
-6.48364067

$$$$

 OpenBabel09122218333D

 22 23  0  0  0  0  0  0  0  0999 V2000
    5.9190   -6.7570    1.5170 C   0  0  0  0  0  0  0  0  0  0  0  0
    6.1330   -8.0440    1.9820 C   0  0  0  0  0  3  0  0  0  0  0  0
    5.2580   -8.2750    3.0680 C   0  0  0  0  0  3  0  0  0  0  0  0
    4.5240   -7.1240    3.2510 C   0  0  0  0  0  3  0  0  0  0  0  0
    4.9110   -6.2070    2.2900 N   0  0  0  0  0  0  0  0  0  0  0  0
    7.6680   -5.3930    0.7730 C   0  0  0  0  0  2  0  0  0  0  0  0
    6.5130   -6.0130    0.4440 C   0  0  0  0  0  0  0  0  0  0  0  0
    5.8250   -6.1300   -0.6050 O   0  0  0  0  0  0  0  0  0  0  0  0
    8.6020   -4.5710   -0.0730 C   0  0  0  0  0  0  0  0  0  0  0  0
    8.8450   -4.7430   -1.2650 O   0  0  0  0  0  0  0  0  0  0  0  0
   10.1650   -2.6910   -0.0710 O   0  0  0  0  0  0  0  0  0  0  0  0
    9.3180   -3.3670    0.6100 C   0  0  0  0  0  0  0  0  0  0  0  0
    9.0030   -3.1200    1.8270 O   0  0  0  0  0  1  0  0  0  0  0  0
    4.4010   -4.8430    2.1870 C   0  0  0  0  0  2  0  0  0  0  0  0
    4.3780   -4.1280    3.5240 C   0  0  0  0  0  0  0  0  0  0  0  0
    3.2050   -3.5160    3.9910 C   0  0  0  0  0  3  0  0  0  0  0  0
    3.1900   -2.8580    5.2240 C   0  0  0  0  0  3  0  0  0  0  0  0
    4.3500   -2.8150    5.9920 C   0  0  0  0  0  0  0  0  0  0  0  0
    5.5210   -3.4170    5.5480 C   0  0  0  0  0  3  0  0  0  0  0  0
    5.5360   -4.0730    4.3160 C   0  0  0  0  0  3  0  0  0  0  0  0
    4.3700   -2.1800    7.2020 O   0  0  0  0  0  0  0  0  0  0  0  0
    3.4830   -1.8280    7.3640 H   0  0  0  0  0  0  0  0  0  0  0  0
  1  2  2  0  0  0  0
  1  5  1  0  0  0  0
  2  3  1  0  0  0  0
  3  4  2  0  0  0  0
  5  4  1  0  0  0  0
  7  6  1  0  0  0  0
  7  1  1  0  0  0  0
  8  7  2  0  0  0  0
  9 12  1  0  0  0  0
  9  6  1  0  0  0  0
 10  9  2  0  0  0  0
 11 12  2  0  0  0  0
 12 13  1  0  0  0  0
 14  5  1  0  0  0  0
 14 15  1  0  0  0  0
 15 16  2  0  0  0  0
 15 20  1  0  0  0  0
 16 17  1  0  0  0  0
 17 18  2  0  0  0  0
 18 21  1  0  0  0  0
 19 18  1  0  0  0  0
 20 19  2  0  0  0  0
 21 22  1  0  0  0  0
M  END
>  <minimizedAffinity>
-6.44852161

$$$$

 OpenBabel09122218333D

 22 23  0  0  0  0  0  0  0  0999 V2000
   11.0880   -3.2090   -0.2460 C   0  0  0  0  0  0  0  0  0  0  0  0
   12.3180   -3.8310   -0.1110 C   0  0  0  0  0  3  0  0  0  0  0  0
   13.2830   -3.0570   -0.7950 C   0  0  0  0  0  3  0  0  0  0  0  0
   12.6270   -1.9760   -1.3390 C   0  0  0  0  0  3  0  0  0  0  0  0
   11.2920   -2.0560   -0.9830 N   0  0  0  0  0  0  0  0  0  0  0  0
    9.1430   -4.4900   -0.4780 C   0  0  0  0  0  2  0  0  0  0  0  0
    9.7830   -3.5460    0.2480 C   0  0  0  0  0  0  0  0  0  0  0  0
    9.5270   -2.8910    1.2940 O   0  0  0  0  0  0  0  0  0  0  0  0
    7.8030   -5.1360   -0.2590 C   0  0  0  0  0  0  0  0  0  0  0  0
    6.9160   -5.2750   -1.0970 O   0  0  0  0  0  0  0  0  0  0  0  0
    7.7930   -6.9350    1.3970 O   0  0  0  0  0  0  0  0  0  0  0  0
    7.5070   -5.7110    1.1600 C   0  0  0  0  0  0  0  0  0  0  0  0
    6.9950   -4.9070    2.0160 O   0  0  0  0  0  1  0  0  0  0  0  0
   10.2570   -1.1200   -1.4140 C   0  0  0  0  0  2  0  0  0  0  0  0
   10.2670    0.1660   -0.6130 C   0  0  0  0  0  0  0  0  0  0  0  0
    9.6390    0.2360    0.6410 C   0  0  0  0  0  3  0  0  0  0  0  0
    9.6510    1.4240    1.3750 C   0  0  0  0  0  3  0  0  0  0  0  0
   10.2930    2.5450    0.8560 C   0  0  0  0  0  0  0  0  0  0  0  0
   10.9230    2.4960   -0.3820 C   0  0  0  0  0  3  0  0  0  0  0  0
   10.9100    1.3090   -1.1150 C   0  0  0  0  0  3  0  0  0  0  0  0
   10.3230    3.7230    1.5480 O   0  0  0  0  0  0  0  0  0  0  0  0
    9.8530    3.5850    2.3840 H   0  0  0  0  0  0  0  0  0  0  0  0
  1  2  2  0  0  0  0
  1  7  1  0  0  0  0
  3  2  1  0  0  0  0
  4  5  1  0  0  0  0
  4  3  2  0  0  0  0
  5  1  1  0  0  0  0
  6  9  1  0  0  0  0
  6  7  1  0  0  0  0
  7  8  2  0  0  0  0
  9 12  1  0  0  0  0
 10  9  2  0  0  0  0
 12 11  2  0  0  0  0
 12 13  1  0  0  0  0
 14  5  1  0  0  0  0
 14 15  1  0  0  0  0
 15 16  1  0  0  0  0
 16 17  2  0  0  0  0
 18 17  1  0  0  0  0
 18 21  1  0  0  0  0
 19 18  2  0  0  0  0
 20 15  2  0  0  0  0
 20 19  1  0  0  0  0
 21 22  1  0  0  0  0
M  END
>  <minimizedAffinity>
-6.42152786

$$$$

 OpenBabel09122218333D

 22 23  0  0  0  0  0  0  0  0999 V2000
    4.1430   -7.5680    3.4210 C   0  0  0  0  0  0  0  0  0  0  0  0
    3.2490   -8.5460    3.8260 C   0  0  0  0  0  3  0  0  0  0  0  0
    2.4160   -7.9980    4.8270 C   0  0  0  0  0  3  0  0  0  0  0  0
    2.8150   -6.6950    5.0200 C   0  0  0  0  0  3  0  0  0  0  0  0
    3.8520   -6.4250    4.1460 N   0  0  0  0  0  0  0  0  0  0  0  0
    4.7970   -7.1770    1.2080 C   0  0  0  0  0  2  0  0  0  0  0  0
    5.1910   -7.5710    2.4400 C   0  0  0  0  0  0  0  0  0  0  0  0
    6.2820   -7.9210    2.9640 O   0  0  0  0  0  0  0  0  0  0  0  0
    5.5970   -7.0030   -0.0540 C   0  0  0  0  0  0  0  0  0  0  0  0
    5.4930   -7.6720   -1.0790 O   0  0  0  0  0  0  0  0  0  0  0  0
    7.1660   -5.4640    1.0180 O   0  0  0  0  0  1  0  0  0  0  0  0
    6.6450   -5.8490   -0.0850 C   0  0  0  0  0  0  0  0  0  0  0  0
    6.9310   -5.3580   -1.2330 O   0  0  0  0  0  0  0  0  0  0  0  0
    4.5840   -5.1620    4.0830 C   0  0  0  0  0  2  0  0  0  0  0  0
    3.8280   -4.0210    4.7360 C   0  0  0  0  0  0  0  0  0  0  0  0
    2.7050   -3.4540    4.1130 C   0  0  0  0  0  3  0  0  0  0  0  0
    2.0140   -2.4030    4.7190 C   0  0  0  0  0  3  0  0  0  0  0  0
    2.4440   -1.9170    5.9500 C   0  0  0  0  0  0  0  0  0  0  0  0
    3.5520   -2.4660    6.5840 C   0  0  0  0  0  3  0  0  0  0  0  0
    4.2440   -3.5170    5.9780 C   0  0  0  0  0  3  0  0  0  0  0  0
    1.7910   -0.8900    6.5700 O   0  0  0  0  0  0  0  0  0  0  0  0
    1.0460   -0.6330    6.0070 H   0  0  0  0  0  0  0  0  0  0  0  0
  1  2  2  0  0  0  0
  1  5  1  0  0  0  0
  2  3  1  0  0  0  0
  3  4  2  0  0  0  0
  5  4  1  0  0  0  0
  6  7  1  0  0  0  0
  7  8  2  0  0  0  0
  7  1  1  0  0  0  0
  9  6  1  0  0  0  0
 10  9  2  0  0  0  0
 12  9  1  0  0  0  0
 12 11  1  0  0  0  0
 13 12  2  0  0  0  0
 14  5  1  0  0  0  0
 14 15  1  0  0  0  0
 15 20  1  0  0  0  0
 16 17  1  0  0  0  0
 16 15  2  0  0  0  0
 17 18  2  0  0  0  0
 18 21  1  0  0  0  0
 18 19  1  0  0  0  0
 20 19  2  0  0  0  0
 22 21  1  0  0  0  0
M  END
>  <minimizedAffinity>
-6.24799061

$$$$

 OpenBabel09122218333D

 22 23  0  0  0  0  0  0  0  0999 V2000
    5.3290   -6.0310    1.4290 C   0  0  0  0  0  0  0  0  0  0  0  0
    4.3270   -6.1670    0.4820 C   0  0  0  0  0  3  0  0  0  0  0  0
    4.9290   -6.2430   -0.7940 C   0  0  0  0  0  3  0  0  0  0  0  0
    6.2900   -6.1500   -0.6070 C   0  0  0  0  0  3  0  0  0  0  0  0
    6.5350   -6.0450    0.7500 N   0  0  0  0  0  0  0  0  0  0  0  0
    5.0640   -4.6690    3.3130 C   0  0  0  0  0  2  0  0  0  0  0  0
    5.2900   -5.9220    2.8590 C   0  0  0  0  0  0  0  0  0  0  0  0
    5.4490   -7.0530    3.3900 O   0  0  0  0  0  0  0  0  0  0  0  0
    4.9070   -4.1620    4.7200 C   0  0  0  0  0  0  0  0  0  0  0  0
    5.5340   -4.5420    5.7050 O   0  0  0  0  0  0  0  0  0  0  0  0
    2.8690   -2.9300    4.1660 O   0  0  0  0  0  0  0  0  0  0  0  0
    3.8650   -3.0270    4.9620 C   0  0  0  0  0  0  0  0  0  0  0  0
    4.0710   -2.2560    5.9640 O   0  0  0  0  0  1  0  0  0  0  0  0
    7.8560   -5.8720    1.3480 C   0  0  0  0  0  2  0  0  0  0  0  0
    8.3950   -4.4670    1.1670 C   0  0  0  0  0  0  0  0  0  0  0  0
    8.2170   -3.4950    2.1640 C   0  0  0  0  0  3  0  0  0  0  0  0
    8.7150   -2.2010    1.9930 C   0  0  0  0  0  3  0  0  0  0  0  0
    9.3950   -1.8780    0.8210 C   0  0  0  0  0  0  0  0  0  0  0  0
    9.5840   -2.8260   -0.1770 C   0  0  0  0  0  3  0  0  0  0  0  0
    9.0850   -4.1190   -0.0050 C   0  0  0  0  0  3  0  0  0  0  0  0
    9.8950   -0.6230    0.6210 O   0  0  0  0  0  0  0  0  0  0  0  0
    9.6880   -0.0950    1.4060 H   0  0  0  0  0  0  0  0  0  0  0  0
  1  7  1  0  0  0  0
  2  1  2  0  0  0  0
  3  4  2  0  0  0  0
  3  2  1  0  0  0  0
  4  5  1  0  0  0  0
  5 14  1  0  0  0  0
  5  1  1  0  0  0  0
  6  9  1  0  0  0  0
  7  6  1  0  0  0  0
  7  8  2  0  0  0  0
  9 12  1  0  0  0  0
  9 10  2  0  0  0  0
 11 12  2  0  0  0  0
 12 13  1  0  0  0  0
 15 14  1  0  0  0  0
 15 16  1  0  0  0  0
 17 16  2  0  0  0  0
 18 17  1  0  0  0  0
 19 20  1  0  0  0  0
 19 18  2  0  0  0  0
 20 15  2  0  0  0  0
 21 18  1  0  0  0  0
 21 22  1  0  0  0  0
M  END
>  <minimizedAffinity>
-6.24722576

$$$$
