
 OpenBabel09122222393D

 22 23  0  0  0  0  0  0  0  0999 V2000
    5.3290   -6.0310    1.4290 C   0  0  0  0  0  0  0  0  0  0  0  0
    4.3270   -6.1670    0.4820 C   0  0  0  0  0  3  0  0  0  0  0  0
    4.9290   -6.2430   -0.7940 C   0  0  0  0  0  3  0  0  0  0  0  0
    6.2900   -6.1500   -0.6070 C   0  0  0  0  0  3  0  0  0  0  0  0
    6.5350   -6.0450    0.7500 N   0  0  0  0  0  0  0  0  0  0  0  0
    5.0640   -4.6690    3.3130 C   0  0  0  0  0  2  0  0  0  0  0  0
    5.2900   -5.9220    2.8590 C   0  0  0  0  0  0  0  0  0  0  0  0
    5.4490   -7.0530    3.3900 O   0  0  0  0  0  0  0  0  0  0  0  0
    4.9070   -4.1620    4.7200 C   0  0  0  0  0  0  0  0  0  0  0  0
    5.5340   -4.5420    5.7050 O   0  0  0  0  0  0  0  0  0  0  0  0
    2.8690   -2.9300    4.1660 O   0  0  0  0  0  0  0  0  0  0  0  0
    3.8650   -3.0270    4.9620 C   0  0  0  0  0  0  0  0  0  0  0  0
    4.0710   -2.2560    5.9640 O   0  0  0  0  0  1  0  0  0  0  0  0
    7.8560   -5.8720    1.3480 C   0  0  0  0  0  2  0  0  0  0  0  0
    8.3950   -4.4670    1.1670 C   0  0  0  0  0  0  0  0  0  0  0  0
    8.2170   -3.4950    2.1640 C   0  0  0  0  0  3  0  0  0  0  0  0
    8.7150   -2.2010    1.9930 C   0  0  0  0  0  3  0  0  0  0  0  0
    9.3950   -1.8780    0.8210 C   0  0  0  0  0  0  0  0  0  0  0  0
    9.5840   -2.8260   -0.1770 C   0  0  0  0  0  3  0  0  0  0  0  0
    9.0850   -4.1190   -0.0050 C   0  0  0  0  0  3  0  0  0  0  0  0
    9.8950   -0.6230    0.6210 O   0  0  0  0  0  0  0  0  0  0  0  0
    9.6880   -0.0950    1.4060 H   0  0  0  0  0  0  0  0  0  0  0  0
  1  7  1  0  0  0  0
  2  1  2  0  0  0  0
  3  4  2  0  0  0  0
  3  2  1  0  0  0  0
  4  5  1  0  0  0  0
  5 14  1  0  0  0  0
  5  1  1  0  0  0  0
  6  9  1  0  0  0  0
  7  6  1  0  0  0  0
  7  8  2  0  0  0  0
  9 12  1  0  0  0  0
  9 10  2  0  0  0  0
 11 12  2  0  0  0  0
 12 13  1  0  0  0  0
 15 14  1  0  0  0  0
 15 16  1  0  0  0  0
 17 16  2  0  0  0  0
 18 17  1  0  0  0  0
 19 20  1  0  0  0  0
 19 18  2  0  0  0  0
 20 15  2  0  0  0  0
 21 18  1  0  0  0  0
 21 22  1  0  0  0  0
M  END
>  <minimizedAffinity>
-6.24722576

$$$$
