
 OpenBabel09122222393D

 22 23  0  0  0  0  0  0  0  0999 V2000
   11.0880   -3.2090   -0.2460 C   0  0  0  0  0  0  0  0  0  0  0  0
   12.3180   -3.8310   -0.1110 C   0  0  0  0  0  3  0  0  0  0  0  0
   13.2830   -3.0570   -0.7950 C   0  0  0  0  0  3  0  0  0  0  0  0
   12.6270   -1.9760   -1.3390 C   0  0  0  0  0  3  0  0  0  0  0  0
   11.2920   -2.0560   -0.9830 N   0  0  0  0  0  0  0  0  0  0  0  0
    9.1430   -4.4900   -0.4780 C   0  0  0  0  0  2  0  0  0  0  0  0
    9.7830   -3.5460    0.2480 C   0  0  0  0  0  0  0  0  0  0  0  0
    9.5270   -2.8910    1.2940 O   0  0  0  0  0  0  0  0  0  0  0  0
    7.8030   -5.1360   -0.2590 C   0  0  0  0  0  0  0  0  0  0  0  0
    6.9160   -5.2750   -1.0970 O   0  0  0  0  0  0  0  0  0  0  0  0
    7.7930   -6.9350    1.3970 O   0  0  0  0  0  0  0  0  0  0  0  0
    7.5070   -5.7110    1.1600 C   0  0  0  0  0  0  0  0  0  0  0  0
    6.9950   -4.9070    2.0160 O   0  0  0  0  0  1  0  0  0  0  0  0
   10.2570   -1.1200   -1.4140 C   0  0  0  0  0  2  0  0  0  0  0  0
   10.2670    0.1660   -0.6130 C   0  0  0  0  0  0  0  0  0  0  0  0
    9.6390    0.2360    0.6410 C   0  0  0  0  0  3  0  0  0  0  0  0
    9.6510    1.4240    1.3750 C   0  0  0  0  0  3  0  0  0  0  0  0
   10.2930    2.5450    0.8560 C   0  0  0  0  0  0  0  0  0  0  0  0
   10.9230    2.4960   -0.3820 C   0  0  0  0  0  3  0  0  0  0  0  0
   10.9100    1.3090   -1.1150 C   0  0  0  0  0  3  0  0  0  0  0  0
   10.3230    3.7230    1.5480 O   0  0  0  0  0  0  0  0  0  0  0  0
    9.8530    3.5850    2.3840 H   0  0  0  0  0  0  0  0  0  0  0  0
  1  2  2  0  0  0  0
  1  7  1  0  0  0  0
  3  2  1  0  0  0  0
  4  5  1  0  0  0  0
  4  3  2  0  0  0  0
  5  1  1  0  0  0  0
  6  9  1  0  0  0  0
  6  7  1  0  0  0  0
  7  8  2  0  0  0  0
  9 12  1  0  0  0  0
 10  9  2  0  0  0  0
 12 11  2  0  0  0  0
 12 13  1  0  0  0  0
 14  5  1  0  0  0  0
 14 15  1  0  0  0  0
 15 16  1  0  0  0  0
 16 17  2  0  0  0  0
 18 17  1  0  0  0  0
 18 21  1  0  0  0  0
 19 18  2  0  0  0  0
 20 15  2  0  0  0  0
 20 19  1  0  0  0  0
 21 22  1  0  0  0  0
M  END
>  <minimizedAffinity>
-6.42152786

$$$$
