
 OpenBabel09122222393D

 22 23  0  0  0  0  0  0  0  0999 V2000
    5.7770   -7.3040    0.9580 C   0  0  0  0  0  0  0  0  0  0  0  0
    5.2440   -7.8410   -0.2030 C   0  0  0  0  0  3  0  0  0  0  0  0
    3.9390   -8.3040    0.0810 C   0  0  0  0  0  3  0  0  0  0  0  0
    3.6960   -8.0460    1.4110 C   0  0  0  0  0  3  0  0  0  0  0  0
    4.8080   -7.4140    1.9400 N   0  0  0  0  0  0  0  0  0  0  0  0
    7.1070   -5.3790    0.9200 C   0  0  0  0  0  2  0  0  0  0  0  0
    7.0440   -6.6910    1.2390 C   0  0  0  0  0  0  0  0  0  0  0  0
    7.8290   -7.5260    1.7630 O   0  0  0  0  0  0  0  0  0  0  0  0
    8.2250   -4.3910    1.1040 C   0  0  0  0  0  0  0  0  0  0  0  0
    8.4590   -3.7370    2.1180 O   0  0  0  0  0  0  0  0  0  0  0  0
   10.3210   -3.5980    0.1260 O   0  0  0  0  0  1  0  0  0  0  0  0
    9.2050   -4.1840   -0.0910 C   0  0  0  0  0  0  0  0  0  0  0  0
    8.8290   -4.6280   -1.2320 O   0  0  0  0  0  0  0  0  0  0  0  0
    4.9590   -7.0260    3.3390 C   0  0  0  0  0  2  0  0  0  0  0  0
    4.1010   -5.8310    3.7070 C   0  0  0  0  0  0  0  0  0  0  0  0
    4.4010   -4.5520    3.2120 C   0  0  0  0  0  3  0  0  0  0  0  0
    3.6070   -3.4550    3.5540 C   0  0  0  0  0  3  0  0  0  0  0  0
    2.5100   -3.6360    4.3920 C   0  0  0  0  0  0  0  0  0  0  0  0
    2.1950   -4.8940    4.8900 C   0  0  0  0  0  3  0  0  0  0  0  0
    2.9890   -5.9910    4.5490 C   0  0  0  0  0  3  0  0  0  0  0  0
    1.7140   -2.5840    4.7460 O   0  0  0  0  0  0  0  0  0  0  0  0
    2.0610   -1.7920    4.3110 H   0  0  0  0  0  0  0  0  0  0  0  0
  1  7  1  0  0  0  0
  1  5  1  0  0  0  0
  2  3  1  0  0  0  0
  2  1  2  0  0  0  0
  3  4  2  0  0  0  0
  4  5  1  0  0  0  0
  5 14  1  0  0  0  0
  6  9  1  0  0  0  0
  6  7  1  0  0  0  0
  7  8  2  0  0  0  0
  9 10  2  0  0  0  0
 12 11  1  0  0  0  0
 12  9  1  0  0  0  0
 13 12  2  0  0  0  0
 14 15  1  0  0  0  0
 15 20  1  0  0  0  0
 16 17  1  0  0  0  0
 16 15  2  0  0  0  0
 17 18  2  0  0  0  0
 18 21  1  0  0  0  0
 18 19  1  0  0  0  0
 20 19  2  0  0  0  0
 22 21  1  0  0  0  0
M  END
>  <minimizedAffinity>
-6.74304867

$$$$
