
 OpenBabel09122222393D

 22 23  0  0  0  0  0  0  0  0999 V2000
    5.9190   -6.7570    1.5170 C   0  0  0  0  0  0  0  0  0  0  0  0
    6.1330   -8.0440    1.9820 C   0  0  0  0  0  3  0  0  0  0  0  0
    5.2580   -8.2750    3.0680 C   0  0  0  0  0  3  0  0  0  0  0  0
    4.5240   -7.1240    3.2510 C   0  0  0  0  0  3  0  0  0  0  0  0
    4.9110   -6.2070    2.2900 N   0  0  0  0  0  0  0  0  0  0  0  0
    7.6680   -5.3930    0.7730 C   0  0  0  0  0  2  0  0  0  0  0  0
    6.5130   -6.0130    0.4440 C   0  0  0  0  0  0  0  0  0  0  0  0
    5.8250   -6.1300   -0.6050 O   0  0  0  0  0  0  0  0  0  0  0  0
    8.6020   -4.5710   -0.0730 C   0  0  0  0  0  0  0  0  0  0  0  0
    8.8450   -4.7430   -1.2650 O   0  0  0  0  0  0  0  0  0  0  0  0
   10.1650   -2.6910   -0.0710 O   0  0  0  0  0  0  0  0  0  0  0  0
    9.3180   -3.3670    0.6100 C   0  0  0  0  0  0  0  0  0  0  0  0
    9.0030   -3.1200    1.8270 O   0  0  0  0  0  1  0  0  0  0  0  0
    4.4010   -4.8430    2.1870 C   0  0  0  0  0  2  0  0  0  0  0  0
    4.3780   -4.1280    3.5240 C   0  0  0  0  0  0  0  0  0  0  0  0
    3.2050   -3.5160    3.9910 C   0  0  0  0  0  3  0  0  0  0  0  0
    3.1900   -2.8580    5.2240 C   0  0  0  0  0  3  0  0  0  0  0  0
    4.3500   -2.8150    5.9920 C   0  0  0  0  0  0  0  0  0  0  0  0
    5.5210   -3.4170    5.5480 C   0  0  0  0  0  3  0  0  0  0  0  0
    5.5360   -4.0730    4.3160 C   0  0  0  0  0  3  0  0  0  0  0  0
    4.3700   -2.1800    7.2020 O   0  0  0  0  0  0  0  0  0  0  0  0
    3.4830   -1.8280    7.3640 H   0  0  0  0  0  0  0  0  0  0  0  0
  1  2  2  0  0  0  0
  1  5  1  0  0  0  0
  2  3  1  0  0  0  0
  3  4  2  0  0  0  0
  5  4  1  0  0  0  0
  7  6  1  0  0  0  0
  7  1  1  0  0  0  0
  8  7  2  0  0  0  0
  9 12  1  0  0  0  0
  9  6  1  0  0  0  0
 10  9  2  0  0  0  0
 11 12  2  0  0  0  0
 12 13  1  0  0  0  0
 14  5  1  0  0  0  0
 14 15  1  0  0  0  0
 15 16  2  0  0  0  0
 15 20  1  0  0  0  0
 16 17  1  0  0  0  0
 17 18  2  0  0  0  0
 18 21  1  0  0  0  0
 19 18  1  0  0  0  0
 20 19  2  0  0  0  0
 21 22  1  0  0  0  0
M  END
>  <minimizedAffinity>
-6.44852161

$$$$
