
 OpenBabel09122222393D

 22 23  0  0  0  0  0  0  0  0999 V2000
    3.7830   -5.9450    4.0700 C   0  0  0  0  0  0  0  0  0  0  0  0
    3.3970   -7.1260    4.6820 C   0  0  0  0  0  3  0  0  0  0  0  0
    2.2450   -6.8670    5.4590 C   0  0  0  0  0  3  0  0  0  0  0  0
    1.9470   -5.5310    5.3110 C   0  0  0  0  0  3  0  0  0  0  0  0
    2.8710   -4.9750    4.4440 N   0  0  0  0  0  0  0  0  0  0  0  0
    4.7240   -6.1640    1.9380 C   0  0  0  0  0  2  0  0  0  0  0  0
    4.8620   -5.6360    3.1750 C   0  0  0  0  0  0  0  0  0  0  0  0
    5.7070   -4.8960    3.7460 O   0  0  0  0  0  0  0  0  0  0  0  0
    5.6020   -6.0290    0.7250 C   0  0  0  0  0  0  0  0  0  0  0  0
    5.2290   -5.7910   -0.4210 O   0  0  0  0  0  0  0  0  0  0  0  0
    7.5740   -7.1740    1.6080 O   0  0  0  0  0  1  0  0  0  0  0  0
    7.1410   -6.1790    0.9320 C   0  0  0  0  0  0  0  0  0  0  0  0
    7.8870   -5.2870    0.3950 O   0  0  0  0  0  0  0  0  0  0  0  0
    2.9230   -3.5630    4.0760 C   0  0  0  0  0  2  0  0  0  0  0  0
    3.1180   -2.6570    5.2760 C   0  0  0  0  0  0  0  0  0  0  0  0
    2.0790   -1.8270    5.7250 C   0  0  0  0  0  3  0  0  0  0  0  0
    2.2630   -0.9930    6.8310 C   0  0  0  0  0  3  0  0  0  0  0  0
    3.4900   -0.9910    7.4910 C   0  0  0  0  0  0  0  0  0  0  0  0
    4.5300   -1.8060    7.0630 C   0  0  0  0  0  3  0  0  0  0  0  0
    4.3450   -2.6390    5.9580 C   0  0  0  0  0  3  0  0  0  0  0  0
    3.7040   -0.1880    8.5750 O   0  0  0  0  0  0  0  0  0  0  0  0
    2.8850    0.3020    8.7450 H   0  0  0  0  0  0  0  0  0  0  0  0
  1  5  1  0  0  0  0
  1  2  2  0  0  0  0
  2  3  1  0  0  0  0
  4  3  2  0  0  0  0
  5  4  1  0  0  0  0
  6  7  1  0  0  0  0
  7  8  2  0  0  0  0
  7  1  1  0  0  0  0
  9 12  1  0  0  0  0
  9  6  1  0  0  0  0
 10  9  2  0  0  0  0
 12 11  1  0  0  0  0
 13 12  2  0  0  0  0
 14  5  1  0  0  0  0
 14 15  1  0  0  0  0
 15 16  2  0  0  0  0
 15 20  1  0  0  0  0
 16 17  1  0  0  0  0
 17 18  2  0  0  0  0
 18 21  1  0  0  0  0
 19 18  1  0  0  0  0
 20 19  2  0  0  0  0
 21 22  1  0  0  0  0
M  END
>  <minimizedAffinity>
-6.48364067

$$$$
