
 OpenBabel09122222393D

 22 23  0  0  0  0  0  0  0  0999 V2000
   10.1580   -3.1100    0.8550 C   0  0  0  0  0  0  0  0  0  0  0  0
   10.1570   -2.4820    2.0900 C   0  0  0  0  0  3  0  0  0  0  0  0
    8.9240   -2.7530    2.7250 C   0  0  0  0  0  3  0  0  0  0  0  0
    8.1890   -3.5410    1.8670 C   0  0  0  0  0  3  0  0  0  0  0  0
    8.9520   -3.7780    0.7370 N   0  0  0  0  0  0  0  0  0  0  0  0
   11.2270   -2.0610   -0.9420 C   0  0  0  0  0  2  0  0  0  0  0  0
   11.1430   -3.1780   -0.1860 C   0  0  0  0  0  0  0  0  0  0  0  0
   11.7490   -4.2820   -0.1460 O   0  0  0  0  0  0  0  0  0  0  0  0
   12.1540   -1.7290   -2.0790 C   0  0  0  0  0  0  0  0  0  0  0  0
   12.8420   -2.5250   -2.7140 O   0  0  0  0  0  0  0  0  0  0  0  0
   13.3490    0.3850   -2.3640 O   0  0  0  0  0  1  0  0  0  0  0  0
   12.2420   -0.2370   -2.5220 C   0  0  0  0  0  0  0  0  0  0  0  0
   11.1870    0.2790   -3.0330 O   0  0  0  0  0  0  0  0  0  0  0  0
    8.5000   -4.5290   -0.4310 C   0  0  0  0  0  2  0  0  0  0  0  0
    7.5090   -5.6190   -0.0730 C   0  0  0  0  0  0  0  0  0  0  0  0
    7.7740   -6.5150    0.9740 C   0  0  0  0  0  3  0  0  0  0  0  0
    6.8580   -7.5180    1.2990 C   0  0  0  0  0  3  0  0  0  0  0  0
    5.6720   -7.6240    0.5780 C   0  0  0  0  0  0  0  0  0  0  0  0
    5.3900   -6.7450   -0.4610 C   0  0  0  0  0  3  0  0  0  0  0  0
    6.3060   -5.7440   -0.7860 C   0  0  0  0  0  3  0  0  0  0  0  0
    4.7550   -8.5930    0.8690 O   0  0  0  0  0  0  0  0  0  0  0  0
    5.0970   -9.1080    1.6150 H   0  0  0  0  0  0  0  0  0  0  0  0
  1  2  2  0  0  0  0
  2  3  1  0  0  0  0
  4  3  2  0  0  0  0
  5  1  1  0  0  0  0
  5  4  1  0  0  0  0
  6  7  1  0  0  0  0
  7  8  2  0  0  0  0
  7  1  1  0  0  0  0
  9  6  1  0  0  0  0
 10  9  2  0  0  0  0
 12 11  1  0  0  0  0
 12  9  1  0  0  0  0
 13 12  2  0  0  0  0
 14 15  1  0  0  0  0
 14  5  1  0  0  0  0
 15 16  1  0  0  0  0
 16 17  2  0  0  0  0
 18 21  1  0  0  0  0
 18 17  1  0  0  0  0
 19 18  2  0  0  0  0
 20 19  1  0  0  0  0
 20 15  2  0  0  0  0
 21 22  1  0  0  0  0
M  END
>  <minimizedAffinity>
-6.6848917

$$$$
