
 OpenBabel09122222393D

 22 23  0  0  0  0  0  0  0  0999 V2000
    4.3750   -7.2490    0.8600 C   0  0  0  0  0  0  0  0  0  0  0  0
    3.7050   -8.3500    0.3510 C   0  0  0  0  0  3  0  0  0  0  0  0
    3.2750   -9.1480    1.4350 C   0  0  0  0  0  3  0  0  0  0  0  0
    3.6910   -8.5240    2.5900 C   0  0  0  0  0  3  0  0  0  0  0  0
    4.3410   -7.3540    2.2400 N   0  0  0  0  0  0  0  0  0  0  0  0
    6.3440   -6.2380    0.1000 C   0  0  0  0  0  2  0  0  0  0  0  0
    5.0020   -6.1270    0.2220 C   0  0  0  0  0  0  0  0  0  0  0  0
    4.1370   -5.2780   -0.1210 O   0  0  0  0  0  0  0  0  0  0  0  0
    7.3370   -5.3110   -0.5450 C   0  0  0  0  0  0  0  0  0  0  0  0
    7.3450   -4.9570   -1.7220 O   0  0  0  0  0  0  0  0  0  0  0  0
    8.1730   -4.4280    1.5760 O   0  0  0  0  0  1  0  0  0  0  0  0
    8.4560   -4.7140    0.3620 C   0  0  0  0  0  0  0  0  0  0  0  0
    9.6100   -4.5550   -0.1710 O   0  0  0  0  0  0  0  0  0  0  0  0
    4.9760   -6.4380    3.1840 C   0  0  0  0  0  2  0  0  0  0  0  0
    4.0450   -5.3310    3.6350 C   0  0  0  0  0  0  0  0  0  0  0  0
    2.9330   -5.6140    4.4440 C   0  0  0  0  0  3  0  0  0  0  0  0
    2.0770   -4.5900    4.8570 C   0  0  0  0  0  3  0  0  0  0  0  0
    2.3340   -3.2800    4.4620 C   0  0  0  0  0  0  0  0  0  0  0  0
    3.4300   -2.9790    3.6630 C   0  0  0  0  0  3  0  0  0  0  0  0
    4.2850   -4.0030    3.2500 C   0  0  0  0  0  3  0  0  0  0  0  0
    1.5170   -2.2550    4.8480 O   0  0  0  0  0  0  0  0  0  0  0  0
    0.8160   -2.6300    5.4010 H   0  0  0  0  0  0  0  0  0  0  0  0
  1  5  1  0  0  0  0
  2  1  2  0  0  0  0
  2  3  1  0  0  0  0
  3  4  2  0  0  0  0
  5  4  1  0  0  0  0
  5 14  1  0  0  0  0
  6  7  1  0  0  0  0
  7  1  1  0  0  0  0
  8  7  2  0  0  0  0
  9  6  1  0  0  0  0
  9 12  1  0  0  0  0
 10  9  2  0  0  0  0
 12 11  1  0  0  0  0
 13 12  2  0  0  0  0
 14 15  1  0  0  0  0
 15 16  1  0  0  0  0
 16 17  2  0  0  0  0
 18 21  1  0  0  0  0
 18 17  1  0  0  0  0
 19 18  2  0  0  0  0
 20 15  2  0  0  0  0
 20 19  1  0  0  0  0
 21 22  1  0  0  0  0
M  END
>  <minimizedAffinity>
-6.73106623

$$$$
