
 OpenBabel09092210413D

 43 48  0  0  0  0  0  0  0  0999 V2000
   11.2400    2.3460    5.0370 C   0  0  0  0  0  0  0  0  0  0  0  0
   10.1400    3.0240    4.5150 C   0  0  0  0  0  3  0  0  0  0  0  0
    8.9640    2.3300    4.2130 C   0  0  0  0  0  3  0  0  0  0  0  0
    8.8650    0.9490    4.4310 C   0  0  0  0  0  0  0  0  0  0  0  0
    9.9990    0.2500    4.9260 C   0  0  0  0  0  0  0  0  0  0  0  0
   11.1630    0.9660    5.2410 C   0  0  0  0  0  3  0  0  0  0  0  0
    9.9950   -1.2070    5.1910 C   0  0  0  0  0  3  0  0  0  0  0  0
    9.3530   -2.0690    4.3820 C   0  0  0  0  0  0  0  0  0  0  0  0
    8.7720   -1.6600    3.0560 C   0  0  0  0  0  2  0  0  0  0  0  0
    7.5710   -0.8770    3.3280 N   0  0  0  0  0  0  0  0  0  0  0  0
    7.5890    0.2630    4.1070 C   0  0  0  0  0  0  0  0  0  0  0  0
    6.2900    0.4390    4.6030 C   0  0  0  0  0  0  0  0  0  0  0  0
    5.4780   -0.6150    4.0280 C   0  0  0  0  0  0  0  0  0  0  0  0
    4.1400   -1.0510    4.1570 C   0  0  0  0  0  3  0  0  0  0  0  0
    3.6940   -2.1930    3.4650 C   0  0  0  0  0  3  0  0  0  0  0  0
    4.5380   -2.9030    2.6060 C   0  0  0  0  0  0  0  0  0  0  0  0
    5.8310   -2.4360    2.4040 C   0  0  0  0  0  3  0  0  0  0  0  0
    6.2930   -1.3510    3.1700 C   0  0  0  0  0  0  0  0  0  0  0  0
    3.9960   -4.1210    1.9450 C   0  0  0  0  0  0  0  0  0  0  0  0
    2.7880   -4.2050    1.7540 O   0  0  0  0  0  0  0  0  0  0  0  0
    4.7980   -5.1850    1.5160 N   0  0  0  0  0  0  0  0  0  0  0  0
    6.3180   -5.7080    1.8310 S   0  0  0  0  0  0  0  0  0  0  0  0
    6.2720   -7.1490    1.7720 O   0  0  0  0  0  0  0  0  0  0  0  0
    7.2420   -4.9610    1.0150 O   0  0  0  0  0  0  0  0  0  0  0  0
    6.5640   -5.2730    3.4200 N   0  0  0  0  0  0  0  0  0  0  0  0
    5.8580   -6.0600    4.4440 C   0  0  0  0  0  2  0  0  0  0  0  0
    5.7540   -5.2610    5.7420 C   0  0  0  0  0  2  0  0  0  0  0  0
    6.8520   -5.5590    6.7700 C   0  0  0  0  0  2  0  0  0  0  0  0
    8.2740   -5.1310    6.3930 C   0  0  0  0  0  2  0  0  0  0  0  0
    8.4250   -3.7340    5.9770 N   0  0  0  0  0  0  0  0  0  0  0  0
    7.9650   -2.7090    6.9130 C   0  0  0  0  0  1  0  0  0  0  0  0
    9.0760   -3.4790    4.7720 C   0  0  0  0  0  0  0  0  0  0  0  0
    9.3400   -4.3740    3.9680 O   0  0  0  0  0  0  0  0  0  0  0  0
    4.2680   -5.9100    1.0400 H   0  0  0  0  0  0  0  0  0  0  0  0
    7.5790   -5.2010    3.5850 H   0  0  0  0  0  0  0  0  0  0  0  0
    5.9130    1.4870    5.6390 C   0  0  0  0  0  3  0  0  0  0  0  0
    4.7750    2.4400    5.2500 C   0  0  0  0  0  2  0  0  0  0  0  0
    4.5710    3.5170    6.3170 C   0  0  0  0  0  2  0  0  0  0  0  0
    4.3000    2.8960    7.6860 C   0  0  0  0  0  2  0  0  0  0  0  0
    5.3860    1.9030    8.0830 C   0  0  0  0  0  2  0  0  0  0  0  0
    5.6140    0.8430    7.0060 C   0  0  0  0  0  2  0  0  0  0  0  0
   12.3960    4.0990    6.1560 C   0  0  0  0  0  1  0  0  0  0  0  0
   12.4410    2.9060    5.3810 O   0  0  0  0  0  0  0  0  0  0  0  0
  1  6  1  0  0  0  0
  1 43  1  0  0  0  0
  2  1  2  0  0  0  0
  3  4  2  0  0  0  0
  3  2  1  0  0  0  0
  4  5  1  0  0  0  0
  5  7  1  0  0  0  0
  5  6  2  0  0  0  0
  8 32  1  0  0  0  0
  8  7  2  0  0  0  0
  9 10  1  0  0  0  0
  9  8  1  0  0  0  0
 10 11  1  0  0  0  0
 11  4  1  0  0  0  0
 11 12  2  0  0  0  0
 12 36  1  0  0  0  0
 13 14  1  0  0  0  0
 13 12  1  0  0  0  0
 15 14  2  0  0  0  0
 16 15  1  0  0  0  0
 17 16  2  0  0  0  0
 17 18  1  0  0  0  0
 18 10  1  0  0  0  0
 18 13  2  0  0  0  0
 19 16  1  0  0  0  0
 20 19  2  0  0  0  0
 21 22  1  0  0  0  0
 21 19  1  0  0  0  0
 22 25  1  0  0  0  0
 23 22  2  0  0  0  0
 24 22  2  0  0  0  0
 25 35  1  0  0  0  0
 25 26  1  0  0  0  0
 26 27  1  0  0  0  0
 27 28  1  0  0  0  0
 29 28  1  0  0  0  0
 30 29  1  0  0  0  0
 30 31  1  0  0  0  0
 32 30  1  0  0  0  0
 33 32  2  0  0  0  0
 34 21  1  0  0  0  0
 36 41  1  0  0  0  0
 37 36  1  0  0  0  0
 37 38  1  0  0  0  0
 38 39  1  0  0  0  0
 39 40  1  0  0  0  0
 41 40  1  0  0  0  0
 43 42  1  0  0  0  0
M  END
>  <minimizedAffinity>
-4.21665192

$$$$
