
 OpenBabel09092210413D

 43 48  0  0  0  0  0  0  0  0999 V2000
   11.1900   -2.3320    9.1030 C   0  0  0  0  0  0  0  0  0  0  0  0
   11.9780   -2.3520    7.9530 C   0  0  0  0  0  3  0  0  0  0  0  0
   11.3810   -2.2850    6.6900 C   0  0  0  0  0  3  0  0  0  0  0  0
    9.9900   -2.1910    6.5530 C   0  0  0  0  0  0  0  0  0  0  0  0
    9.1830   -2.2110    7.7230 C   0  0  0  0  0  0  0  0  0  0  0  0
    9.8000   -2.2600    8.9810 C   0  0  0  0  0  3  0  0  0  0  0  0
    7.7060   -2.1160    7.6850 C   0  0  0  0  0  3  0  0  0  0  0  0
    6.9840   -2.7280    6.7280 C   0  0  0  0  0  0  0  0  0  0  0  0
    7.5860   -3.7080    5.7580 C   0  0  0  0  0  2  0  0  0  0  0  0
    8.3800   -2.9450    4.8010 N   0  0  0  0  0  0  0  0  0  0  0  0
    9.4090   -2.1080    5.1900 C   0  0  0  0  0  0  0  0  0  0  0  0
    9.5760   -1.1650    4.1660 C   0  0  0  0  0  0  0  0  0  0  0  0
    8.6420   -1.5190    3.1170 C   0  0  0  0  0  0  0  0  0  0  0  0
    8.2530   -0.9670    1.8750 C   0  0  0  0  0  3  0  0  0  0  0  0
    7.2320   -1.5690    1.1170 C   0  0  0  0  0  3  0  0  0  0  0  0
    6.6020   -2.7430    1.5420 C   0  0  0  0  0  0  0  0  0  0  0  0
    7.0330   -3.3440    2.7190 C   0  0  0  0  0  3  0  0  0  0  0  0
    7.9880   -2.6840    3.5120 C   0  0  0  0  0  0  0  0  0  0  0  0
    5.5040   -3.2890    0.6990 C   0  0  0  0  0  0  0  0  0  0  0  0
    5.4990   -3.0440   -0.5010 O   0  0  0  0  0  0  0  0  0  0  0  0
    4.4700   -4.0860    1.2050 N   0  0  0  0  0  0  0  0  0  0  0  0
    3.8440   -4.3920    2.6870 S   0  0  0  0  0  0  0  0  0  0  0  0
    2.4260   -4.5810    2.4980 O   0  0  0  0  0  0  0  0  0  0  0  0
    4.6470   -5.4010    3.3300 O   0  0  0  0  0  0  0  0  0  0  0  0
    4.0590   -2.9590    3.5100 N   0  0  0  0  0  0  0  0  0  0  0  0
    3.1790   -1.8390    3.1400 C   0  0  0  0  0  2  0  0  0  0  0  0
    3.8070   -0.5130    3.5660 C   0  0  0  0  0  2  0  0  0  0  0  0
    3.3310    0.0170    4.9240 C   0  0  0  0  0  2  0  0  0  0  0  0
    3.7400   -0.7970    6.1560 C   0  0  0  0  0  2  0  0  0  0  0  0
    5.1700   -1.0910    6.2730 N   0  0  0  0  0  0  0  0  0  0  0  0
    6.0860    0.0500    6.2610 C   0  0  0  0  0  1  0  0  0  0  0  0
    5.5490   -2.4140    6.4820 C   0  0  0  0  0  0  0  0  0  0  0  0
    4.7550   -3.3490    6.3690 O   0  0  0  0  0  0  0  0  0  0  0  0
    3.8370   -4.4140    0.4810 H   0  0  0  0  0  0  0  0  0  0  0  0
    4.0630   -3.1620    4.5210 H   0  0  0  0  0  0  0  0  0  0  0  0
   10.4980    0.0410    4.2680 C   0  0  0  0  0  3  0  0  0  0  0  0
   11.0190    0.6050    2.9400 C   0  0  0  0  0  2  0  0  0  0  0  0
   12.0250    1.7330    3.1780 C   0  0  0  0  0  2  0  0  0  0  0  0
   11.4160    2.8480    4.0260 C   0  0  0  0  0  2  0  0  0  0  0  0
   10.8400    2.3150    5.3340 C   0  0  0  0  0  2  0  0  0  0  0  0
    9.8580    1.1670    5.1010 C   0  0  0  0  0  2  0  0  0  0  0  0
   10.6660   -2.4290   11.4210 C   0  0  0  0  0  1  0  0  0  0  0  0
   11.6470   -2.3830   10.3920 O   0  0  0  0  0  0  0  0  0  0  0  0
  1 43  1  0  0  0  0
  2  1  2  0  0  0  0
  3  2  1  0  0  0  0
  4  3  2  0  0  0  0
  4  5  1  0  0  0  0
  5  6  2  0  0  0  0
  6  1  1  0  0  0  0
  7  5  1  0  0  0  0
  8  7  2  0  0  0  0
  9  8  1  0  0  0  0
 10 11  1  0  0  0  0
 10  9  1  0  0  0  0
 11  4  1  0  0  0  0
 12 36  1  0  0  0  0
 12 11  2  0  0  0  0
 13 18  1  0  0  0  0
 13 12  1  0  0  0  0
 14 13  2  0  0  0  0
 15 16  2  0  0  0  0
 15 14  1  0  0  0  0
 16 17  1  0  0  0  0
 17 18  2  0  0  0  0
 18 10  1  0  0  0  0
 19 21  1  0  0  0  0
 19 16  1  0  0  0  0
 20 19  2  0  0  0  0
 21 22  1  0  0  0  0
 22 24  2  0  0  0  0
 22 25  1  0  0  0  0
 23 22  2  0  0  0  0
 25 35  1  0  0  0  0
 26 25  1  0  0  0  0
 26 27  1  0  0  0  0
 27 28  1  0  0  0  0
 28 29  1  0  0  0  0
 29 30  1  0  0  0  0
 30 32  1  0  0  0  0
 31 30  1  0  0  0  0
 32  8  1  0  0  0  0
 33 32  2  0  0  0  0
 34 21  1  0  0  0  0
 36 41  1  0  0  0  0
 37 38  1  0  0  0  0
 37 36  1  0  0  0  0
 38 39  1  0  0  0  0
 39 40  1  0  0  0  0
 41 40  1  0  0  0  0
 43 42  1  0  0  0  0
M  END
>  <minimizedAffinity>
-4.37742662

$$$$
