
 OpenBabel09092210413D

 43 48  0  0  0  0  0  0  0  0999 V2000
    2.5410   -4.9370    5.4560 C   0  0  0  0  0  0  0  0  0  0  0  0
    2.2990   -4.0730    4.3900 C   0  0  0  0  0  3  0  0  0  0  0  0
    3.3470   -3.3380    3.8280 C   0  0  0  0  0  3  0  0  0  0  0  0
    4.6550   -3.4550    4.3170 C   0  0  0  0  0  0  0  0  0  0  0  0
    4.8970   -4.3050    5.4300 C   0  0  0  0  0  0  0  0  0  0  0  0
    3.8360   -5.0490    5.9690 C   0  0  0  0  0  3  0  0  0  0  0  0
    6.2400   -4.4980    6.0200 C   0  0  0  0  0  3  0  0  0  0  0  0
    7.1130   -3.4800    6.1370 C   0  0  0  0  0  0  0  0  0  0  0  0
    6.7300   -2.0490    5.8740 C   0  0  0  0  0  2  0  0  0  0  0  0
    6.5950   -1.8900    4.4300 N   0  0  0  0  0  0  0  0  0  0  0  0
    5.7330   -2.6620    3.6760 C   0  0  0  0  0  0  0  0  0  0  0  0
    6.2220   -2.6540    2.3620 C   0  0  0  0  0  0  0  0  0  0  0  0
    7.3810   -1.7850    2.3540 C   0  0  0  0  0  0  0  0  0  0  0  0
    8.3550   -1.4000    1.4050 C   0  0  0  0  0  3  0  0  0  0  0  0
    9.4150   -0.5520    1.7770 C   0  0  0  0  0  3  0  0  0  0  0  0
    9.5180   -0.0360    3.0720 C   0  0  0  0  0  0  0  0  0  0  0  0
    8.5220   -0.3380    3.9930 C   0  0  0  0  0  3  0  0  0  0  0  0
    7.5200   -1.2590    3.6370 C   0  0  0  0  0  0  0  0  0  0  0  0
   10.6930    0.8200    3.3900 C   0  0  0  0  0  0  0  0  0  0  0  0
   11.2360    1.4430    2.4850 O   0  0  0  0  0  0  0  0  0  0  0  0
   11.2130    0.9630    4.6820 N   0  0  0  0  0  0  0  0  0  0  0  0
   11.1000    0.1330    6.0900 S   0  0  0  0  0  0  0  0  0  0  0  0
   12.3840    0.2560    6.7370 O   0  0  0  0  0  0  0  0  0  0  0  0
    9.8890    0.5270    6.7640 O   0  0  0  0  0  0  0  0  0  0  0  0
   10.9280   -1.4500    5.6010 N   0  0  0  0  0  0  0  0  0  0  0  0
   12.1260   -2.1160    5.0630 C   0  0  0  0  0  2  0  0  0  0  0  0
   11.7210   -3.3140    4.2050 C   0  0  0  0  0  2  0  0  0  0  0  0
   11.7280   -4.6600    4.9370 C   0  0  0  0  0  2  0  0  0  0  0  0
   10.6780   -4.8460    6.0370 C   0  0  0  0  0  2  0  0  0  0  0  0
    9.2940   -4.5640    5.6440 N   0  0  0  0  0  0  0  0  0  0  0  0
    8.7660   -5.3030    4.4980 C   0  0  0  0  0  1  0  0  0  0  0  0
    8.5550   -3.6910    6.4390 C   0  0  0  0  0  0  0  0  0  0  0  0
    9.0770   -3.0080    7.3210 O   0  0  0  0  0  0  0  0  0  0  0  0
   11.9820    1.6260    4.7250 H   0  0  0  0  0  0  0  0  0  0  0  0
   10.4720   -1.9780    6.3610 H   0  0  0  0  0  0  0  0  0  0  0  0
    5.6580   -3.5170    1.2430 C   0  0  0  0  0  3  0  0  0  0  0  0
    5.2540   -2.7790   -0.0390 C   0  0  0  0  0  2  0  0  0  0  0  0
    4.5940   -3.7300   -1.0380 C   0  0  0  0  0  2  0  0  0  0  0  0
    5.5100   -4.9070   -1.3690 C   0  0  0  0  0  2  0  0  0  0  0  0
    5.9730   -5.6350   -0.1120 C   0  0  0  0  0  2  0  0  0  0  0  0
    6.6060   -4.6820    0.9010 C   0  0  0  0  0  2  0  0  0  0  0  0
    2.0810   -6.5730    7.1210 C   0  0  0  0  0  1  0  0  0  0  0  0
    1.6100   -5.7170    6.0870 O   0  0  0  0  0  0  0  0  0  0  0  0
  1  6  1  0  0  0  0
  1 43  1  0  0  0  0
  2  1  2  0  0  0  0
  3  4  2  0  0  0  0
  3  2  1  0  0  0  0
  4  5  1  0  0  0  0
  5  6  2  0  0  0  0
  5  7  1  0  0  0  0
  7  8  2  0  0  0  0
  8 32  1  0  0  0  0
  9  8  1  0  0  0  0
 10  9  1  0  0  0  0
 11  4  1  0  0  0  0
 11 10  1  0  0  0  0
 12 11  2  0  0  0  0
 13 12  1  0  0  0  0
 13 18  1  0  0  0  0
 14 15  1  0  0  0  0
 14 13  2  0  0  0  0
 15 16  2  0  0  0  0
 16 19  1  0  0  0  0
 16 17  1  0  0  0  0
 18 17  2  0  0  0  0
 18 10  1  0  0  0  0
 19 21  1  0  0  0  0
 20 19  2  0  0  0  0
 21 34  1  0  0  0  0
 21 22  1  0  0  0  0
 22 23  2  0  0  0  0
 22 24  2  0  0  0  0
 25 22  1  0  0  0  0
 25 35  1  0  0  0  0
 26 25  1  0  0  0  0
 27 28  1  0  0  0  0
 27 26  1  0  0  0  0
 28 29  1  0  0  0  0
 30 29  1  0  0  0  0
 30 32  1  0  0  0  0
 31 30  1  0  0  0  0
 32 33  2  0  0  0  0
 36 12  1  0  0  0  0
 37 36  1  0  0  0  0
 38 37  1  0  0  0  0
 39 38  1  0  0  0  0
 39 40  1  0  0  0  0
 40 41  1  0  0  0  0
 41 36  1  0  0  0  0
 43 42  1  0  0  0  0
M  END
>  <minimizedAffinity>
-4.75884199

$$$$
