
 OpenBabel09092210413D

 43 48  0  0  0  0  0  0  0  0999 V2000
   10.4560   -0.0260    8.8740 C   0  0  0  0  0  0  0  0  0  0  0  0
   11.3000   -0.3380    7.8100 C   0  0  0  0  0  3  0  0  0  0  0  0
   10.7670   -0.7760    6.5940 C   0  0  0  0  0  3  0  0  0  0  0  0
    9.3830   -0.9060    6.4170 C   0  0  0  0  0  0  0  0  0  0  0  0
    8.5230   -0.6270    7.5130 C   0  0  0  0  0  0  0  0  0  0  0  0
    9.0740   -0.1700    8.7190 C   0  0  0  0  0  3  0  0  0  0  0  0
    7.0490   -0.7320    7.4290 C   0  0  0  0  0  3  0  0  0  0  0  0
    6.4510   -1.7160    6.7310 C   0  0  0  0  0  0  0  0  0  0  0  0
    7.2090   -2.8850    6.1630 C   0  0  0  0  0  2  0  0  0  0  0  0
    7.9620   -2.4000    5.0120 N   0  0  0  0  0  0  0  0  0  0  0  0
    8.8690   -1.3620    5.1020 C   0  0  0  0  0  0  0  0  0  0  0  0
    8.9840   -0.8100    3.8190 C   0  0  0  0  0  0  0  0  0  0  0  0
    8.1520   -1.6100    2.9430 C   0  0  0  0  0  0  0  0  0  0  0  0
    7.7700   -1.5640    1.5840 C   0  0  0  0  0  3  0  0  0  0  0  0
    6.8630   -2.5080    1.0670 C   0  0  0  0  0  3  0  0  0  0  0  0
    6.3460   -3.5350    1.8620 C   0  0  0  0  0  0  0  0  0  0  0  0
    6.7780   -3.6440    3.1780 C   0  0  0  0  0  3  0  0  0  0  0  0
    7.6110   -2.6420    3.7070 C   0  0  0  0  0  0  0  0  0  0  0  0
    5.3620   -4.4660    1.2450 C   0  0  0  0  0  0  0  0  0  0  0  0
    5.3930   -4.6450    0.0330 O   0  0  0  0  0  0  0  0  0  0  0  0
    4.3970   -5.1640    1.9810 N   0  0  0  0  0  0  0  0  0  0  0  0
    3.7320   -5.0230    3.4710 S   0  0  0  0  0  0  0  0  0  0  0  0
    2.3550   -5.4370    3.3420 O   0  0  0  0  0  0  0  0  0  0  0  0
    4.6080   -5.6480    4.4300 O   0  0  0  0  0  0  0  0  0  0  0  0
    3.7430   -3.3810    3.7550 N   0  0  0  0  0  0  0  0  0  0  0  0
    2.7640   -2.5690    3.0130 C   0  0  0  0  0  2  0  0  0  0  0  0
    3.2180   -1.1120    2.9660 C   0  0  0  0  0  2  0  0  0  0  0  0
    2.6150   -0.2150    4.0530 C   0  0  0  0  0  2  0  0  0  0  0  0
    3.0460   -0.5060    5.4950 C   0  0  0  0  0  2  0  0  0  0  0  0
    4.4930   -0.5650    5.7220 N   0  0  0  0  0  0  0  0  0  0  0  0
    5.2750    0.6070    5.3300 C   0  0  0  0  0  1  0  0  0  0  0  0
    5.0050   -1.6820    6.3770 C   0  0  0  0  0  0  0  0  0  0  0  0
    4.3260   -2.6890    6.5820 O   0  0  0  0  0  0  0  0  0  0  0  0
    3.8440   -5.7930    1.4060 H   0  0  0  0  0  0  0  0  0  0  0  0
    3.7160   -3.2270    4.7740 H   0  0  0  0  0  0  0  0  0  0  0  0
    9.7600    0.4630    3.5110 C   0  0  0  0  0  3  0  0  0  0  0  0
    9.5100    1.6480    4.4520 C   0  0  0  0  0  2  0  0  0  0  0  0
   10.2500    2.8980    3.9720 C   0  0  0  0  0  2  0  0  0  0  0  0
   11.7480    2.6350    3.8330 C   0  0  0  0  0  2  0  0  0  0  0  0
   12.0320    1.4300    2.9430 C   0  0  0  0  0  2  0  0  0  0  0  0
   11.2710    0.1870    3.4030 C   0  0  0  0  0  2  0  0  0  0  0  0
   10.2360    1.6130   10.5850 C   0  0  0  0  0  1  0  0  0  0  0  0
   10.8470    0.4200   10.1070 O   0  0  0  0  0  0  0  0  0  0  0  0
  1 43  1  0  0  0  0
  2  1  2  0  0  0  0
  3  2  1  0  0  0  0
  4  3  2  0  0  0  0
  4  5  1  0  0  0  0
  5  6  2  0  0  0  0
  6  1  1  0  0  0  0
  7  5  1  0  0  0  0
  8  7  2  0  0  0  0
  9  8  1  0  0  0  0
 10 11  1  0  0  0  0
 10  9  1  0  0  0  0
 11  4  1  0  0  0  0
 12 11  2  0  0  0  0
 13 18  1  0  0  0  0
 13 12  1  0  0  0  0
 14 13  2  0  0  0  0
 15 14  1  0  0  0  0
 15 16  2  0  0  0  0
 16 17  1  0  0  0  0
 17 18  2  0  0  0  0
 18 10  1  0  0  0  0
 19 16  1  0  0  0  0
 19 21  1  0  0  0  0
 20 19  2  0  0  0  0
 21 22  1  0  0  0  0
 22 25  1  0  0  0  0
 22 24  2  0  0  0  0
 23 22  2  0  0  0  0
 25 35  1  0  0  0  0
 26 25  1  0  0  0  0
 27 26  1  0  0  0  0
 27 28  1  0  0  0  0
 28 29  1  0  0  0  0
 29 30  1  0  0  0  0
 30 32  1  0  0  0  0
 31 30  1  0  0  0  0
 32 33  2  0  0  0  0
 32  8  1  0  0  0  0
 34 21  1  0  0  0  0
 36 12  1  0  0  0  0
 36 37  1  0  0  0  0
 38 37  1  0  0  0  0
 39 38  1  0  0  0  0
 40 41  1  0  0  0  0
 40 39  1  0  0  0  0
 41 36  1  0  0  0  0
 43 42  1  0  0  0  0
M  END
>  <minimizedAffinity>
-4.20708609

$$$$
