
 OpenBabel09092210413D

 43 48  0  0  0  0  0  0  0  0999 V2000
    2.2330   -1.2550    5.9700 C   0  0  0  0  0  0  0  0  0  0  0  0
    2.3920   -1.0020    4.6080 C   0  0  0  0  0  3  0  0  0  0  0  0
    3.6590   -0.7130    4.0900 C   0  0  0  0  0  3  0  0  0  0  0  0
    4.7870   -0.6750    4.9210 C   0  0  0  0  0  0  0  0  0  0  0  0
    4.6200   -0.8930    6.3150 C   0  0  0  0  0  0  0  0  0  0  0  0
    3.3450   -1.2010    6.8130 C   0  0  0  0  0  3  0  0  0  0  0  0
    5.7470   -0.8750    7.2750 C   0  0  0  0  0  3  0  0  0  0  0  0
    6.7600    0.0030    7.1570 C   0  0  0  0  0  0  0  0  0  0  0  0
    6.7300    1.1510    6.1840 C   0  0  0  0  0  2  0  0  0  0  0  0
    6.9320    0.5990    4.8500 N   0  0  0  0  0  0  0  0  0  0  0  0
    6.1090   -0.3760    4.3180 C   0  0  0  0  0  0  0  0  0  0  0  0
    6.8520   -1.0430    3.3330 C   0  0  0  0  0  0  0  0  0  0  0  0
    8.1360   -0.3760    3.2560 C   0  0  0  0  0  0  0  0  0  0  0  0
    9.3420   -0.5740    2.5460 C   0  0  0  0  0  3  0  0  0  0  0  0
   10.4480    0.2660    2.7740 C   0  0  0  0  0  3  0  0  0  0  0  0
   10.3800    1.3360    3.6710 C   0  0  0  0  0  0  0  0  0  0  0  0
    9.1750    1.5940    4.3130 C   0  0  0  0  0  3  0  0  0  0  0  0
    8.1070    0.6950    4.1480 C   0  0  0  0  0  0  0  0  0  0  0  0
   11.6090    2.1490    3.8810 C   0  0  0  0  0  0  0  0  0  0  0  0
   12.4400    2.2120    2.9830 O   0  0  0  0  0  0  0  0  0  0  0  0
   11.8670    2.8620    5.0580 N   0  0  0  0  0  0  0  0  0  0  0  0
   11.3040    2.8300    6.5950 S   0  0  0  0  0  0  0  0  0  0  0  0
   12.4240    3.1560    7.4450 O   0  0  0  0  0  0  0  0  0  0  0  0
   10.0810    3.5910    6.6560 O   0  0  0  0  0  0  0  0  0  0  0  0
   10.9280    1.2270    6.8450 N   0  0  0  0  0  0  0  0  0  0  0  0
   12.0550    0.2960    7.0180 C   0  0  0  0  0  2  0  0  0  0  0  0
   11.6080   -1.1330    6.7160 C   0  0  0  0  0  2  0  0  0  0  0  0
   11.1970   -1.9510    7.9450 C   0  0  0  0  0  2  0  0  0  0  0  0
    9.9260   -1.5010    8.6720 C   0  0  0  0  0  2  0  0  0  0  0  0
    8.7380   -1.3430    7.8290 N   0  0  0  0  0  0  0  0  0  0  0  0
    8.3230   -2.5030    7.0410 C   0  0  0  0  0  1  0  0  0  0  0  0
    8.0370   -0.1410    7.9070 C   0  0  0  0  0  0  0  0  0  0  0  0
    8.4890    0.8430    8.4940 O   0  0  0  0  0  0  0  0  0  0  0  0
   12.7270    3.4020    5.0090 H   0  0  0  0  0  0  0  0  0  0  0  0
   10.2280    1.1700    7.6010 H   0  0  0  0  0  0  0  0  0  0  0  0
    6.3740   -2.2960    2.6150 C   0  0  0  0  0  3  0  0  0  0  0  0
    6.4690   -2.2730    1.0840 C   0  0  0  0  0  2  0  0  0  0  0  0
    5.8500   -3.5320    0.4750 C   0  0  0  0  0  2  0  0  0  0  0  0
    6.5070   -4.7950    1.0290 C   0  0  0  0  0  2  0  0  0  0  0  0
    6.4760   -4.8270    2.5540 C   0  0  0  0  0  2  0  0  0  0  0  0
    7.0660   -3.5570    3.1650 C   0  0  0  0  0  2  0  0  0  0  0  0
    0.8150   -0.9310    7.8530 C   0  0  0  0  0  1  0  0  0  0  0  0
    1.0560   -1.5580    6.5980 O   0  0  0  0  0  0  0  0  0  0  0  0
  1 43  1  0  0  0  0
  1  6  1  0  0  0  0
  2  1  2  0  0  0  0
  3  2  1  0  0  0  0
  3  4  2  0  0  0  0
  4  5  1  0  0  0  0
  5  6  2  0  0  0  0
  5  7  1  0  0  0  0
  8  7  2  0  0  0  0
  8 32  1  0  0  0  0
  9  8  1  0  0  0  0
 10  9  1  0  0  0  0
 11 10  1  0  0  0  0
 11  4  1  0  0  0  0
 12 11  2  0  0  0  0
 13 12  1  0  0  0  0
 13 18  1  0  0  0  0
 14 15  1  0  0  0  0
 14 13  2  0  0  0  0
 15 16  2  0  0  0  0
 16 19  1  0  0  0  0
 16 17  1  0  0  0  0
 18 17  2  0  0  0  0
 18 10  1  0  0  0  0
 19 21  1  0  0  0  0
 20 19  2  0  0  0  0
 21 22  1  0  0  0  0
 22 24  2  0  0  0  0
 22 25  1  0  0  0  0
 22 23  2  0  0  0  0
 25 26  1  0  0  0  0
 25 35  1  0  0  0  0
 27 26  1  0  0  0  0
 27 28  1  0  0  0  0
 28 29  1  0  0  0  0
 30 32  1  0  0  0  0
 30 29  1  0  0  0  0
 31 30  1  0  0  0  0
 32 33  2  0  0  0  0
 34 21  1  0  0  0  0
 36 41  1  0  0  0  0
 36 12  1  0  0  0  0
 37 36  1  0  0  0  0
 38 39  1  0  0  0  0
 38 37  1  0  0  0  0
 39 40  1  0  0  0  0
 40 41  1  0  0  0  0
 43 42  1  0  0  0  0
M  END
>  <minimizedAffinity>
-4.60235357

$$$$
