
 OpenBabel09092210413D

 43 48  0  0  0  0  0  0  0  0999 V2000
    9.0920   -6.7640    4.6140 C   0  0  0  0  0  0  0  0  0  0  0  0
   10.1700   -6.7060    5.4950 C   0  0  0  0  0  3  0  0  0  0  0  0
   10.5810   -5.4790    6.0250 C   0  0  0  0  0  3  0  0  0  0  0  0
    9.9210   -4.2900    5.6870 C   0  0  0  0  0  0  0  0  0  0  0  0
    8.8480   -4.3410    4.7570 C   0  0  0  0  0  0  0  0  0  0  0  0
    8.4380   -5.5840    4.2510 C   0  0  0  0  0  3  0  0  0  0  0  0
    8.0870   -3.1440    4.3360 C   0  0  0  0  0  3  0  0  0  0  0  0
    8.6920   -1.9580    4.1360 C   0  0  0  0  0  0  0  0  0  0  0  0
   10.1890   -1.8020    4.1220 C   0  0  0  0  0  2  0  0  0  0  0  0
   10.6520   -1.9110    5.5000 N   0  0  0  0  0  0  0  0  0  0  0  0
   10.3890   -3.0160    6.2870 C   0  0  0  0  0  0  0  0  0  0  0  0
   10.4710   -2.5950    7.6220 C   0  0  0  0  0  0  0  0  0  0  0  0
   10.8620   -1.2000    7.5960 C   0  0  0  0  0  0  0  0  0  0  0  0
   11.0510   -0.1800    8.5560 C   0  0  0  0  0  3  0  0  0  0  0  0
   11.3850    1.1260    8.1510 C   0  0  0  0  0  3  0  0  0  0  0  0
   11.5790    1.4460    6.8030 C   0  0  0  0  0  0  0  0  0  0  0  0
   11.4800    0.4340    5.8560 C   0  0  0  0  0  3  0  0  0  0  0  0
   11.0550   -0.8430    6.2630 C   0  0  0  0  0  0  0  0  0  0  0  0
   11.8900    2.8600    6.4610 C   0  0  0  0  0  0  0  0  0  0  0  0
   12.4400    3.5660    7.2970 O   0  0  0  0  0  0  0  0  0  0  0  0
   11.5970    3.4330    5.2180 N   0  0  0  0  0  0  0  0  0  0  0  0
   10.6110    3.0670    3.9620 S   0  0  0  0  0  0  0  0  0  0  0  0
   10.1500    4.3250    3.4270 O   0  0  0  0  0  0  0  0  0  0  0  0
   11.2720    2.1000    3.1210 O   0  0  0  0  0  0  0  0  0  0  0  0
    9.3110    2.3170    4.6860 N   0  0  0  0  0  0  0  0  0  0  0  0
    8.3800    3.1750    5.4370 C   0  0  0  0  0  2  0  0  0  0  0  0
    7.5850    2.3390    6.4390 C   0  0  0  0  0  2  0  0  0  0  0  0
    6.2100    1.8780    5.9420 C   0  0  0  0  0  2  0  0  0  0  0  0
    6.2040    0.8630    4.7940 C   0  0  0  0  0  2  0  0  0  0  0  0
    7.0230   -0.3340    5.0040 N   0  0  0  0  0  0  0  0  0  0  0  0
    6.7470   -1.1270    6.2010 C   0  0  0  0  0  1  0  0  0  0  0  0
    7.9340   -0.6830    4.0100 C   0  0  0  0  0  0  0  0  0  0  0  0
    8.2110    0.0760    3.0800 O   0  0  0  0  0  0  0  0  0  0  0  0
   11.9250    4.3910    5.1390 H   0  0  0  0  0  0  0  0  0  0  0  0
    8.8450    1.7220    3.9850 H   0  0  0  0  0  0  0  0  0  0  0  0
   10.0880   -3.4640    8.8090 C   0  0  0  0  0  3  0  0  0  0  0  0
   11.1490   -3.6090    9.9080 C   0  0  0  0  0  2  0  0  0  0  0  0
   10.6960   -4.5980   10.9840 C   0  0  0  0  0  2  0  0  0  0  0  0
    9.3560   -4.1820   11.5900 C   0  0  0  0  0  2  0  0  0  0  0  0
    8.2890   -3.9780   10.5190 C   0  0  0  0  0  2  0  0  0  0  0  0
    8.7510   -3.0140    9.4270 C   0  0  0  0  0  2  0  0  0  0  0  0
    7.3760   -7.7590    3.3010 C   0  0  0  0  0  1  0  0  0  0  0  0
    8.5870   -7.8960    4.0350 O   0  0  0  0  0  0  0  0  0  0  0  0
  1  2  1  0  0  0  0
  2  3  2  0  0  0  0
  4  3  1  0  0  0  0
  4 11  1  0  0  0  0
  5  4  2  0  0  0  0
  6  1  2  0  0  0  0
  6  5  1  0  0  0  0
  7  5  1  0  0  0  0
  8  7  2  0  0  0  0
  9  8  1  0  0  0  0
  9 10  1  0  0  0  0
 10 18  1  0  0  0  0
 10 11  1  0  0  0  0
 11 12  2  0  0  0  0
 12 36  1  0  0  0  0
 13 12  1  0  0  0  0
 13 14  1  0  0  0  0
 15 14  2  0  0  0  0
 16 15  1  0  0  0  0
 17 18  1  0  0  0  0
 17 16  2  0  0  0  0
 18 13  2  0  0  0  0
 19 16  1  0  0  0  0
 19 20  2  0  0  0  0
 21 19  1  0  0  0  0
 22 25  1  0  0  0  0
 22 21  1  0  0  0  0
 23 22  2  0  0  0  0
 24 22  2  0  0  0  0
 25 26  1  0  0  0  0
 26 27  1  0  0  0  0
 28 27  1  0  0  0  0
 29 30  1  0  0  0  0
 29 28  1  0  0  0  0
 30 31  1  0  0  0  0
 32  8  1  0  0  0  0
 32 30  1  0  0  0  0
 33 32  2  0  0  0  0
 34 21  1  0  0  0  0
 35 25  1  0  0  0  0
 36 41  1  0  0  0  0
 36 37  1  0  0  0  0
 37 38  1  0  0  0  0
 38 39  1  0  0  0  0
 40 39  1  0  0  0  0
 41 40  1  0  0  0  0
 42 43  1  0  0  0  0
 43  1  1  0  0  0  0
M  END
>  <minimizedAffinity>
-3.87732148

$$$$
