
 OpenBabel09092210413D

 43 48  0  0  0  0  0  0  0  0999 V2000
    8.0840    2.2360    9.3220 C   0  0  0  0  0  0  0  0  0  0  0  0
    9.2770    1.8920    8.6890 C   0  0  0  0  0  3  0  0  0  0  0  0
    9.2550    1.1770    7.4870 C   0  0  0  0  0  3  0  0  0  0  0  0
    8.0430    0.7980    6.8950 C   0  0  0  0  0  0  0  0  0  0  0  0
    6.8270    1.1130    7.5590 C   0  0  0  0  0  0  0  0  0  0  0  0
    6.8680    1.8470    8.7540 C   0  0  0  0  0  3  0  0  0  0  0  0
    5.4960    0.7580    7.0170 C   0  0  0  0  0  3  0  0  0  0  0  0
    5.2810   -0.4120    6.3860 C   0  0  0  0  0  0  0  0  0  0  0  0
    6.2970   -1.5210    6.3630 C   0  0  0  0  0  2  0  0  0  0  0  0
    7.3610   -1.1200    5.4500 N   0  0  0  0  0  0  0  0  0  0  0  0
    8.0760    0.0520    5.6130 C   0  0  0  0  0  0  0  0  0  0  0  0
    8.5880    0.3940    4.3530 C   0  0  0  0  0  0  0  0  0  0  0  0
    8.2010   -0.6640    3.4430 C   0  0  0  0  0  0  0  0  0  0  0  0
    8.3250   -0.9080    2.0570 C   0  0  0  0  0  3  0  0  0  0  0  0
    7.7540   -2.0590    1.4820 C   0  0  0  0  0  3  0  0  0  0  0  0
    7.0860   -3.0090    2.2600 C   0  0  0  0  0  0  0  0  0  0  0  0
    7.0300   -2.8260    3.6370 C   0  0  0  0  0  3  0  0  0  0  0  0
    7.5220   -1.6290    4.1860 C   0  0  0  0  0  0  0  0  0  0  0  0
    6.4770   -4.1760    1.5650 C   0  0  0  0  0  0  0  0  0  0  0  0
    6.9550   -4.5470    0.4990 O   0  0  0  0  0  0  0  0  0  0  0  0
    5.3840   -4.8880    2.0720 N   0  0  0  0  0  0  0  0  0  0  0  0
    4.2220   -4.6110    3.1920 S   0  0  0  0  0  0  0  0  0  0  0  0
    3.0270   -5.2570    2.7060 O   0  0  0  0  0  0  0  0  0  0  0  0
    4.7540   -4.9170    4.4960 O   0  0  0  0  0  0  0  0  0  0  0  0
    3.9780   -2.9650    3.1080 N   0  0  0  0  0  0  0  0  0  0  0  0
    3.2550   -2.4570    1.9300 C   0  0  0  0  0  2  0  0  0  0  0  0
    3.5580   -0.9740    1.7270 C   0  0  0  0  0  2  0  0  0  0  0  0
    2.5260   -0.0180    2.3370 C   0  0  0  0  0  2  0  0  0  0  0  0
    2.4410    0.0090    3.8670 C   0  0  0  0  0  2  0  0  0  0  0  0
    3.7110    0.2230    4.5670 N   0  0  0  0  0  0  0  0  0  0  0  0
    4.4690    1.4240    4.2160 C   0  0  0  0  0  1  0  0  0  0  0  0
    4.0590   -0.6720    5.5750 C   0  0  0  0  0  0  0  0  0  0  0  0
    3.4490   -1.7270    5.7540 O   0  0  0  0  0  0  0  0  0  0  0  0
    5.1330   -5.6860    1.4940 H   0  0  0  0  0  0  0  0  0  0  0  0
    3.5760   -2.6490    4.0040 H   0  0  0  0  0  0  0  0  0  0  0  0
    9.2990    1.7060    4.0560 C   0  0  0  0  0  3  0  0  0  0  0  0
    8.5690    2.9820    4.4930 C   0  0  0  0  0  2  0  0  0  0  0  0
    9.3230    4.2320    4.0350 C   0  0  0  0  0  2  0  0  0  0  0  0
   10.7580    4.2360    4.5580 C   0  0  0  0  0  2  0  0  0  0  0  0
   11.5000    2.9570    4.1860 C   0  0  0  0  0  2  0  0  0  0  0  0
   10.7340    1.7050    4.6160 C   0  0  0  0  0  2  0  0  0  0  0  0
    6.7700    2.7530   11.2370 C   0  0  0  0  0  1  0  0  0  0  0  0
    7.9670    2.9390   10.4910 O   0  0  0  0  0  0  0  0  0  0  0  0
  1 43  1  0  0  0  0
  2  1  2  0  0  0  0
  3  2  1  0  0  0  0
  4  3  2  0  0  0  0
  4  5  1  0  0  0  0
  5  6  2  0  0  0  0
  6  1  1  0  0  0  0
  7  5  1  0  0  0  0
  8  7  2  0  0  0  0
  9  8  1  0  0  0  0
 10 11  1  0  0  0  0
 10  9  1  0  0  0  0
 11  4  1  0  0  0  0
 12 11  2  0  0  0  0
 13 18  1  0  0  0  0
 13 12  1  0  0  0  0
 14 13  2  0  0  0  0
 15 14  1  0  0  0  0
 15 16  2  0  0  0  0
 16 17  1  0  0  0  0
 17 18  2  0  0  0  0
 18 10  1  0  0  0  0
 19 21  1  0  0  0  0
 19 16  1  0  0  0  0
 20 19  2  0  0  0  0
 21 22  1  0  0  0  0
 22 24  2  0  0  0  0
 23 22  2  0  0  0  0
 25 22  1  0  0  0  0
 25 35  1  0  0  0  0
 26 25  1  0  0  0  0
 27 26  1  0  0  0  0
 27 28  1  0  0  0  0
 28 29  1  0  0  0  0
 29 30  1  0  0  0  0
 30 32  1  0  0  0  0
 31 30  1  0  0  0  0
 32 33  2  0  0  0  0
 32  8  1  0  0  0  0
 34 21  1  0  0  0  0
 36 12  1  0  0  0  0
 36 37  1  0  0  0  0
 36 41  1  0  0  0  0
 38 37  1  0  0  0  0
 38 39  1  0  0  0  0
 40 39  1  0  0  0  0
 40 41  1  0  0  0  0
 43 42  1  0  0  0  0
M  END
>  <minimizedAffinity>
-4.114223

$$$$
