
 OpenBabel09092210413D

 43 48  0  0  0  0  0  0  0  0999 V2000
   10.8820    1.9300    3.8320 C   0  0  0  0  0  0  0  0  0  0  0  0
   10.7010    1.0180    2.7940 C   0  0  0  0  0  3  0  0  0  0  0  0
   10.2130   -0.2650    3.0630 C   0  0  0  0  0  3  0  0  0  0  0  0
    9.8950   -0.6570    4.3700 C   0  0  0  0  0  0  0  0  0  0  0  0
   10.1170    0.2580    5.4340 C   0  0  0  0  0  0  0  0  0  0  0  0
   10.5890    1.5470    5.1430 C   0  0  0  0  0  3  0  0  0  0  0  0
    9.8130   -0.0590    6.8480 C   0  0  0  0  0  3  0  0  0  0  0  0
   10.0390   -1.2820    7.3600 C   0  0  0  0  0  0  0  0  0  0  0  0
   10.7940   -2.3490    6.6150 C   0  0  0  0  0  2  0  0  0  0  0  0
    9.9190   -2.8500    5.5610 N   0  0  0  0  0  0  0  0  0  0  0  0
    9.3680   -2.0260    4.5990 C   0  0  0  0  0  0  0  0  0  0  0  0
    8.2170   -2.6680    4.1220 C   0  0  0  0  0  0  0  0  0  0  0  0
    8.1420   -3.9470    4.7990 C   0  0  0  0  0  0  0  0  0  0  0  0
    7.2280   -5.0240    4.8370 C   0  0  0  0  0  3  0  0  0  0  0  0
    7.4560   -6.1220    5.6870 C   0  0  0  0  0  3  0  0  0  0  0  0
    8.6020   -6.2020    6.4850 C   0  0  0  0  0  0  0  0  0  0  0  0
    9.5520   -5.1920    6.3940 C   0  0  0  0  0  3  0  0  0  0  0  0
    9.2680   -4.0580    5.6120 C   0  0  0  0  0  0  0  0  0  0  0  0
    8.7440   -7.3800    7.3840 C   0  0  0  0  0  0  0  0  0  0  0  0
    8.1870   -8.4280    7.0820 O   0  0  0  0  0  0  0  0  0  0  0  0
    9.4970   -7.3590    8.5640 N   0  0  0  0  0  0  0  0  0  0  0  0
   10.1010   -6.1980    9.5490 S   0  0  0  0  0  0  0  0  0  0  0  0
   10.0350   -6.7270   10.8900 O   0  0  0  0  0  0  0  0  0  0  0  0
   11.3470   -5.7270    8.9980 O   0  0  0  0  0  0  0  0  0  0  0  0
    8.9880   -4.9650    9.4350 N   0  0  0  0  0  0  0  0  0  0  0  0
    7.6990   -5.1640   10.1170 C   0  0  0  0  0  2  0  0  0  0  0  0
    6.6370   -4.2450    9.5150 C   0  0  0  0  0  2  0  0  0  0  0  0
    6.4320   -2.9240   10.2640 C   0  0  0  0  0  2  0  0  0  0  0  0
    7.5960   -1.9280   10.2240 C   0  0  0  0  0  2  0  0  0  0  0  0
    8.1050   -1.6050    8.8880 N   0  0  0  0  0  0  0  0  0  0  0  0
    7.1410   -1.0890    7.9160 C   0  0  0  0  0  1  0  0  0  0  0  0
    9.4750   -1.7200    8.6670 C   0  0  0  0  0  0  0  0  0  0  0  0
   10.2260   -2.2670    9.4770 O   0  0  0  0  0  0  0  0  0  0  0  0
    9.5270   -8.2640    9.0270 H   0  0  0  0  0  0  0  0  0  0  0  0
    9.4540   -4.0800    9.6880 H   0  0  0  0  0  0  0  0  0  0  0  0
    7.2220   -2.0250    3.1680 C   0  0  0  0  0  3  0  0  0  0  0  0
    6.9810   -2.7660    1.8460 C   0  0  0  0  0  2  0  0  0  0  0  0
    6.0580   -1.9650    0.9260 C   0  0  0  0  0  2  0  0  0  0  0  0
    4.7290   -1.6520    1.6100 C   0  0  0  0  0  2  0  0  0  0  0  0
    4.9330   -0.9590    2.9540 C   0  0  0  0  0  2  0  0  0  0  0  0
    5.8780   -1.7430    3.8640 C   0  0  0  0  0  2  0  0  0  0  0  0
   10.5450    4.2430    4.2770 C   0  0  0  0  0  1  0  0  0  0  0  0
   11.3410    3.2130    3.7030 O   0  0  0  0  0  0  0  0  0  0  0  0
  1  6  1  0  0  0  0
  2  3  1  0  0  0  0
  2  1  2  0  0  0  0
  3  4  2  0  0  0  0
  4 11  1  0  0  0  0
  4  5  1  0  0  0  0
  5  7  1  0  0  0  0
  6  5  2  0  0  0  0
  7  8  2  0  0  0  0
  8 32  1  0  0  0  0
  9  8  1  0  0  0  0
 10 18  1  0  0  0  0
 10  9  1  0  0  0  0
 11 10  1  0  0  0  0
 12 11  2  0  0  0  0
 12 13  1  0  0  0  0
 13 14  2  0  0  0  0
 13 18  1  0  0  0  0
 14 15  1  0  0  0  0
 15 16  2  0  0  0  0
 16 19  1  0  0  0  0
 17 16  1  0  0  0  0
 18 17  2  0  0  0  0
 19 21  1  0  0  0  0
 20 19  2  0  0  0  0
 21 34  1  0  0  0  0
 21 22  1  0  0  0  0
 22 23  2  0  0  0  0
 24 22  2  0  0  0  0
 25 22  1  0  0  0  0
 25 35  1  0  0  0  0
 25 26  1  0  0  0  0
 27 26  1  0  0  0  0
 27 28  1  0  0  0  0
 29 28  1  0  0  0  0
 30 29  1  0  0  0  0
 31 30  1  0  0  0  0
 32 30  1  0  0  0  0
 32 33  2  0  0  0  0
 36 41  1  0  0  0  0
 36 12  1  0  0  0  0
 37 36  1  0  0  0  0
 38 39  1  0  0  0  0
 38 37  1  0  0  0  0
 39 40  1  0  0  0  0
 40 41  1  0  0  0  0
 43  1  1  0  0  0  0
 43 42  1  0  0  0  0
M  END
>  <minimizedAffinity>
-3.67350411

$$$$
