
 OpenBabel09092210413D

 43 48  0  0  0  0  0  0  0  0999 V2000
   10.2800    1.6890    3.9820 C   0  0  0  0  0  0  0  0  0  0  0  0
    9.2010    2.4310    4.4580 C   0  0  0  0  0  3  0  0  0  0  0  0
    7.9450    1.8340    4.6030 C   0  0  0  0  0  3  0  0  0  0  0  0
    7.7450    0.4860    4.2790 C   0  0  0  0  0  0  0  0  0  0  0  0
    8.8340   -0.2620    3.7550 C   0  0  0  0  0  0  0  0  0  0  0  0
   10.0910    0.3480    3.6350 C   0  0  0  0  0  3  0  0  0  0  0  0
    8.7270   -1.6910    3.3840 C   0  0  0  0  0  3  0  0  0  0  0  0
    7.6220   -2.1860    2.7950 C   0  0  0  0  0  0  0  0  0  0  0  0
    6.5100   -1.3080    2.2880 C   0  0  0  0  0  2  0  0  0  0  0  0
    5.7810   -0.8110    3.4490 N   0  0  0  0  0  0  0  0  0  0  0  0
    6.3960   -0.1030    4.4640 C   0  0  0  0  0  0  0  0  0  0  0  0
    5.5990   -0.2560    5.6080 C   0  0  0  0  0  0  0  0  0  0  0  0
    4.4440   -1.0360    5.2100 C   0  0  0  0  0  0  0  0  0  0  0  0
    3.3210   -1.5920    5.8630 C   0  0  0  0  0  3  0  0  0  0  0  0
    2.3950   -2.3720    5.1460 C   0  0  0  0  0  3  0  0  0  0  0  0
    2.5310   -2.5870    3.7710 C   0  0  0  0  0  0  0  0  0  0  0  0
    3.5830   -1.9760    3.1000 C   0  0  0  0  0  3  0  0  0  0  0  0
    4.5510   -1.2770    3.8420 C   0  0  0  0  0  0  0  0  0  0  0  0
    1.5280   -3.4580    3.0990 C   0  0  0  0  0  0  0  0  0  0  0  0
    0.4050   -3.5510    3.5810 O   0  0  0  0  0  0  0  0  0  0  0  0
    1.7950   -4.1760    1.9280 N   0  0  0  0  0  0  0  0  0  0  0  0
    3.1420   -4.6580    1.1300 S   0  0  0  0  0  0  0  0  0  0  0  0
    2.8320   -5.9410    0.5480 O   0  0  0  0  0  0  0  0  0  0  0  0
    3.6110   -3.5670    0.3140 O   0  0  0  0  0  0  0  0  0  0  0  0
    4.2530   -4.9080    2.3460 N   0  0  0  0  0  0  0  0  0  0  0  0
    4.0680   -6.1050    3.1820 C   0  0  0  0  0  2  0  0  0  0  0  0
    4.7950   -5.9330    4.5150 C   0  0  0  0  0  2  0  0  0  0  0  0
    6.2010   -6.5430    4.5630 C   0  0  0  0  0  2  0  0  0  0  0  0
    7.2630   -5.8840    3.6770 C   0  0  0  0  0  2  0  0  0  0  0  0
    7.4040   -4.4340    3.8330 N   0  0  0  0  0  0  0  0  0  0  0  0
    7.6820   -3.9340    5.1790 C   0  0  0  0  0  1  0  0  0  0  0  0
    7.3590   -3.6470    2.6840 C   0  0  0  0  0  0  0  0  0  0  0  0
    7.0080   -4.1000    1.5940 O   0  0  0  0  0  0  0  0  0  0  0  0
    0.9820   -4.6760    1.5800 H   0  0  0  0  0  0  0  0  0  0  0  0
    5.1990   -4.8310    1.9440 H   0  0  0  0  0  0  0  0  0  0  0  0
    6.0030    0.2290    6.9920 C   0  0  0  0  0  3  0  0  0  0  0  0
    7.3840   -0.2180    7.4870 C   0  0  0  0  0  2  0  0  0  0  0  0
    7.6240    0.2300    8.9290 C   0  0  0  0  0  2  0  0  0  0  0  0
    7.4730    1.7430    9.0710 C   0  0  0  0  0  2  0  0  0  0  0  0
    6.1290    2.2300    8.5410 C   0  0  0  0  0  2  0  0  0  0  0  0
    5.8730    1.7590    7.1100 C   0  0  0  0  0  2  0  0  0  0  0  0
   12.4120    1.3690    2.9770 C   0  0  0  0  0  1  0  0  0  0  0  0
   11.5560    2.1490    3.8040 O   0  0  0  0  0  0  0  0  0  0  0  0
  1  2  1  0  0  0  0
  2  3  2  0  0  0  0
  4 11  1  0  0  0  0
  4  3  1  0  0  0  0
  5  4  2  0  0  0  0
  6  5  1  0  0  0  0
  6  1  2  0  0  0  0
  7  5  1  0  0  0  0
  8  7  2  0  0  0  0
  9  8  1  0  0  0  0
  9 10  1  0  0  0  0
 10 18  1  0  0  0  0
 10 11  1  0  0  0  0
 11 12  2  0  0  0  0
 12 36  1  0  0  0  0
 13 12  1  0  0  0  0
 13 14  1  0  0  0  0
 15 14  2  0  0  0  0
 16 15  1  0  0  0  0
 17 16  2  0  0  0  0
 17 18  1  0  0  0  0
 18 13  2  0  0  0  0
 19 20  2  0  0  0  0
 19 16  1  0  0  0  0
 21 19  1  0  0  0  0
 22 21  1  0  0  0  0
 22 25  1  0  0  0  0
 23 22  2  0  0  0  0
 24 22  2  0  0  0  0
 25 26  1  0  0  0  0
 26 27  1  0  0  0  0
 27 28  1  0  0  0  0
 29 30  1  0  0  0  0
 29 28  1  0  0  0  0
 30 31  1  0  0  0  0
 32  8  1  0  0  0  0
 32 30  1  0  0  0  0
 33 32  2  0  0  0  0
 34 21  1  0  0  0  0
 35 25  1  0  0  0  0
 36 41  1  0  0  0  0
 36 37  1  0  0  0  0
 37 38  1  0  0  0  0
 38 39  1  0  0  0  0
 40 39  1  0  0  0  0
 41 40  1  0  0  0  0
 42 43  1  0  0  0  0
 43  1  1  0  0  0  0
M  END
>  <minimizedAffinity>
-3.7442627

$$$$
