
 OpenBabel09092210413D

 43 48  0  0  0  0  0  0  0  0999 V2000
    9.7890    0.5160    8.9710 C   0  0  0  0  0  0  0  0  0  0  0  0
   10.7330    0.0780    8.0450 C   0  0  0  0  0  3  0  0  0  0  0  0
   10.3220   -0.4640    6.8230 C   0  0  0  0  0  3  0  0  0  0  0  0
    8.9620   -0.5720    6.5030 C   0  0  0  0  0  0  0  0  0  0  0  0
    7.9970   -0.1620    7.4620 C   0  0  0  0  0  0  0  0  0  0  0  0
    8.4290    0.3960    8.6740 C   0  0  0  0  0  3  0  0  0  0  0  0
    6.5380   -0.2350    7.2200 C   0  0  0  0  0  3  0  0  0  0  0  0
    5.9840   -1.2660    6.5560 C   0  0  0  0  0  0  0  0  0  0  0  0
    6.7540   -2.5060    6.1920 C   0  0  0  0  0  2  0  0  0  0  0  0
    7.6480   -2.1580    5.0930 N   0  0  0  0  0  0  0  0  0  0  0  0
    8.5790   -1.1410    5.1870 C   0  0  0  0  0  0  0  0  0  0  0  0
    8.8570   -0.7210    3.8780 C   0  0  0  0  0  0  0  0  0  0  0  0
    8.0970   -1.5810    2.9940 C   0  0  0  0  0  0  0  0  0  0  0  0
    7.8700   -1.6590    1.6010 C   0  0  0  0  0  3  0  0  0  0  0  0
    6.9900   -2.6240    1.0760 C   0  0  0  0  0  3  0  0  0  0  0  0
    6.3490   -3.5530    1.9010 C   0  0  0  0  0  0  0  0  0  0  0  0
    6.6280   -3.5430    3.2620 C   0  0  0  0  0  3  0  0  0  0  0  0
    7.4350   -2.5180    3.7860 C   0  0  0  0  0  0  0  0  0  0  0  0
    5.4040   -4.5120    1.2670 C   0  0  0  0  0  0  0  0  0  0  0  0
    5.5620   -4.8110    0.0890 O   0  0  0  0  0  0  0  0  0  0  0  0
    4.3380   -5.1070    1.9520 N   0  0  0  0  0  0  0  0  0  0  0  0
    3.5170   -4.8020    3.3360 S   0  0  0  0  0  0  0  0  0  0  0  0
    2.1490   -5.1890    3.0910 O   0  0  0  0  0  0  0  0  0  0  0  0
    4.2570   -5.3530    4.4440 O   0  0  0  0  0  0  0  0  0  0  0  0
    3.5600   -3.1420    3.4620 N   0  0  0  0  0  0  0  0  0  0  0  0
    2.7010   -2.3800    2.5400 C   0  0  0  0  0  2  0  0  0  0  0  0
    3.2130   -0.9480    2.4070 C   0  0  0  0  0  2  0  0  0  0  0  0
    2.5290    0.0680    3.3280 C   0  0  0  0  0  2  0  0  0  0  0  0
    2.7860   -0.0900    4.8310 C   0  0  0  0  0  2  0  0  0  0  0  0
    4.1950   -0.1670    5.2260 N   0  0  0  0  0  0  0  0  0  0  0  0
    5.0610    0.9390    4.8160 C   0  0  0  0  0  1  0  0  0  0  0  0
    4.5890   -1.2280    6.0370 C   0  0  0  0  0  0  0  0  0  0  0  0
    3.8530   -2.1910    6.2590 O   0  0  0  0  0  0  0  0  0  0  0  0
    3.8270   -5.7750    1.3800 H   0  0  0  0  0  0  0  0  0  0  0  0
    3.4270   -2.8870    4.4520 H   0  0  0  0  0  0  0  0  0  0  0  0
    9.7100    0.4930    3.5420 C   0  0  0  0  0  3  0  0  0  0  0  0
    9.4680    1.7440    4.3950 C   0  0  0  0  0  2  0  0  0  0  0  0
   10.2940    2.9270    3.8860 C   0  0  0  0  0  2  0  0  0  0  0  0
   11.7830    2.5870    3.8500 C   0  0  0  0  0  2  0  0  0  0  0  0
   12.0560    1.3170    3.0510 C   0  0  0  0  0  2  0  0  0  0  0  0
   11.2090    0.1420    3.5390 C   0  0  0  0  0  2  0  0  0  0  0  0
    8.9420    1.4870   10.9710 C   0  0  0  0  0  1  0  0  0  0  0  0
   10.0580    1.0710   10.1930 O   0  0  0  0  0  0  0  0  0  0  0  0
  1 43  1  0  0  0  0
  2  1  2  0  0  0  0
  3  2  1  0  0  0  0
  4  3  2  0  0  0  0
  4  5  1  0  0  0  0
  5  6  2  0  0  0  0
  6  1  1  0  0  0  0
  7  5  1  0  0  0  0
  8  7  2  0  0  0  0
  9  8  1  0  0  0  0
 10 11  1  0  0  0  0
 10  9  1  0  0  0  0
 11  4  1  0  0  0  0
 12 11  2  0  0  0  0
 13 18  1  0  0  0  0
 13 12  1  0  0  0  0
 14 13  2  0  0  0  0
 15 14  1  0  0  0  0
 15 16  2  0  0  0  0
 16 17  1  0  0  0  0
 17 18  2  0  0  0  0
 18 10  1  0  0  0  0
 19 16  1  0  0  0  0
 19 21  1  0  0  0  0
 20 19  2  0  0  0  0
 21 22  1  0  0  0  0
 22 25  1  0  0  0  0
 22 24  2  0  0  0  0
 23 22  2  0  0  0  0
 25 35  1  0  0  0  0
 26 25  1  0  0  0  0
 27 26  1  0  0  0  0
 27 28  1  0  0  0  0
 28 29  1  0  0  0  0
 29 30  1  0  0  0  0
 30 32  1  0  0  0  0
 31 30  1  0  0  0  0
 32 33  2  0  0  0  0
 32  8  1  0  0  0  0
 34 21  1  0  0  0  0
 36 12  1  0  0  0  0
 36 37  1  0  0  0  0
 38 37  1  0  0  0  0
 39 38  1  0  0  0  0
 40 41  1  0  0  0  0
 40 39  1  0  0  0  0
 41 36  1  0  0  0  0
 43 42  1  0  0  0  0
M  END
>  <minimizedAffinity>
-4.191082

$$$$
