
 OpenBabel09092210413D

 43 48  0  0  0  0  0  0  0  0999 V2000
    2.5390   -4.9280    5.4690 C   0  0  0  0  0  0  0  0  0  0  0  0
    2.2960   -4.0680    4.3990 C   0  0  0  0  0  3  0  0  0  0  0  0
    3.3440   -3.3320    3.8370 C   0  0  0  0  0  3  0  0  0  0  0  0
    4.6510   -3.4440    4.3300 C   0  0  0  0  0  0  0  0  0  0  0  0
    4.8930   -4.2900    5.4460 C   0  0  0  0  0  0  0  0  0  0  0  0
    3.8330   -5.0350    5.9840 C   0  0  0  0  0  3  0  0  0  0  0  0
    6.2360   -4.4780    6.0390 C   0  0  0  0  0  3  0  0  0  0  0  0
    7.1050   -3.4570    6.1540 C   0  0  0  0  0  0  0  0  0  0  0  0
    6.7190   -2.0270    5.8860 C   0  0  0  0  0  2  0  0  0  0  0  0
    6.5870   -1.8740    4.4410 N   0  0  0  0  0  0  0  0  0  0  0  0
    5.7280   -2.6510    3.6880 C   0  0  0  0  0  0  0  0  0  0  0  0
    6.2200   -2.6450    2.3750 C   0  0  0  0  0  0  0  0  0  0  0  0
    7.3770   -1.7730    2.3660 C   0  0  0  0  0  0  0  0  0  0  0  0
    8.3510   -1.3880    1.4180 C   0  0  0  0  0  3  0  0  0  0  0  0
    9.4080   -0.5370    1.7890 C   0  0  0  0  0  3  0  0  0  0  0  0
    9.5080   -0.0170    3.0840 C   0  0  0  0  0  0  0  0  0  0  0  0
    8.5100   -0.3180    4.0030 C   0  0  0  0  0  3  0  0  0  0  0  0
    7.5120   -1.2420    3.6480 C   0  0  0  0  0  0  0  0  0  0  0  0
   10.6800    0.8440    3.4010 C   0  0  0  0  0  0  0  0  0  0  0  0
   11.2230    1.4650    2.4950 O   0  0  0  0  0  0  0  0  0  0  0  0
   11.1960    0.9920    4.6930 N   0  0  0  0  0  0  0  0  0  0  0  0
   11.0840    0.1670    6.1030 S   0  0  0  0  0  0  0  0  0  0  0  0
   12.3660    0.2950    6.7530 O   0  0  0  0  0  0  0  0  0  0  0  0
    9.8690    0.5590    6.7740 O   0  0  0  0  0  0  0  0  0  0  0  0
   10.9170   -1.4190    5.6190 N   0  0  0  0  0  0  0  0  0  0  0  0
   12.1170   -2.0830    5.0860 C   0  0  0  0  0  2  0  0  0  0  0  0
   11.7170   -3.2850    4.2310 C   0  0  0  0  0  2  0  0  0  0  0  0
   11.7260   -4.6290    4.9680 C   0  0  0  0  0  2  0  0  0  0  0  0
   10.6740   -4.8140    6.0660 C   0  0  0  0  0  2  0  0  0  0  0  0
    9.2910   -4.5360    5.6690 N   0  0  0  0  0  0  0  0  0  0  0  0
    8.7660   -5.2800    4.5240 C   0  0  0  0  0  1  0  0  0  0  0  0
    8.5480   -3.6630    6.4600 C   0  0  0  0  0  0  0  0  0  0  0  0
    9.0660   -2.9760    7.3410 O   0  0  0  0  0  0  0  0  0  0  0  0
   11.9640    1.6570    4.7350 H   0  0  0  0  0  0  0  0  0  0  0  0
   10.4600   -1.9450    6.3800 H   0  0  0  0  0  0  0  0  0  0  0  0
    5.6610   -3.5130    1.2580 C   0  0  0  0  0  3  0  0  0  0  0  0
    5.2720   -2.7820   -0.0340 C   0  0  0  0  0  2  0  0  0  0  0  0
    4.6150   -3.7370   -1.0320 C   0  0  0  0  0  2  0  0  0  0  0  0
    5.5270   -4.9220   -1.3450 C   0  0  0  0  0  2  0  0  0  0  0  0
    5.9750   -5.6440   -0.0790 C   0  0  0  0  0  2  0  0  0  0  0  0
    6.6040   -4.6860    0.9330 C   0  0  0  0  0  2  0  0  0  0  0  0
    2.0930   -6.8460    6.8050 C   0  0  0  0  0  1  0  0  0  0  0  0
    1.6080   -5.7080    6.1000 O   0  0  0  0  0  0  0  0  0  0  0  0
  1  6  1  0  0  0  0
  1 43  1  0  0  0  0
  2  1  2  0  0  0  0
  3  4  2  0  0  0  0
  3  2  1  0  0  0  0
  4  5  1  0  0  0  0
  5  6  2  0  0  0  0
  5  7  1  0  0  0  0
  7  8  2  0  0  0  0
  8 32  1  0  0  0  0
  9  8  1  0  0  0  0
 10  9  1  0  0  0  0
 11  4  1  0  0  0  0
 11 10  1  0  0  0  0
 12 11  2  0  0  0  0
 13 12  1  0  0  0  0
 13 18  1  0  0  0  0
 14 15  1  0  0  0  0
 14 13  2  0  0  0  0
 15 16  2  0  0  0  0
 16 19  1  0  0  0  0
 16 17  1  0  0  0  0
 18 17  2  0  0  0  0
 18 10  1  0  0  0  0
 19 21  1  0  0  0  0
 20 19  2  0  0  0  0
 21 34  1  0  0  0  0
 21 22  1  0  0  0  0
 22 23  2  0  0  0  0
 22 24  2  0  0  0  0
 25 22  1  0  0  0  0
 25 35  1  0  0  0  0
 26 25  1  0  0  0  0
 27 28  1  0  0  0  0
 27 26  1  0  0  0  0
 28 29  1  0  0  0  0
 30 29  1  0  0  0  0
 30 32  1  0  0  0  0
 31 30  1  0  0  0  0
 32 33  2  0  0  0  0
 36 12  1  0  0  0  0
 37 36  1  0  0  0  0
 38 37  1  0  0  0  0
 39 38  1  0  0  0  0
 39 40  1  0  0  0  0
 40 41  1  0  0  0  0
 41 36  1  0  0  0  0
 43 42  1  0  0  0  0
M  END
>  <minimizedAffinity>
-4.74977446

$$$$
