
 OpenBabel09122222393D

 42 47  0  0  0  0  0  0  0  0999 V2000
    1.4830   -7.2760    9.2180 C   0  0  0  0  0  0  0  0  0  0  0  0
    2.8440   -7.3940    8.9400 C   0  0  0  0  0  3  0  0  0  0  0  0
    3.6320   -6.2430    8.8550 C   0  0  0  0  0  3  0  0  0  0  0  0
    3.0630   -4.9820    9.0740 C   0  0  0  0  0  0  0  0  0  0  0  0
    1.6950   -4.8800    9.3540 C   0  0  0  0  0  3  0  0  0  0  0  0
    0.9080   -6.0270    9.4420 C   0  0  0  0  0  3  0  0  0  0  0  0
    3.8770   -3.7720    9.0310 C   0  0  0  0  0  0  0  0  0  0  0  0
    4.3300   -3.1490   10.0990 N   0  0  0  0  0  0  0  0  0  0  0  0
    5.0920   -2.1060    9.6370 C   0  0  0  0  0  0  0  0  0  0  0  0
    5.8070   -1.1360   10.3590 C   0  0  0  0  0  3  0  0  0  0  0  0
    6.5450   -0.1530    9.6730 C   0  0  0  0  0  0  0  0  0  0  0  0
    6.5450   -0.1640    8.2690 C   0  0  0  0  0  3  0  0  0  0  0  0
    5.8360   -1.1200    7.5300 C   0  0  0  0  0  3  0  0  0  0  0  0
    5.1150   -2.0850    8.2440 C   0  0  0  0  0  0  0  0  0  0  0  0
    4.3310   -3.1590    7.8730 N   0  0  0  0  0  0  0  0  0  0  0  0
    4.0580   -3.6120    6.5130 C   0  0  0  0  0  3  0  0  0  0  0  0
    3.0300   -2.7300    5.7840 C   0  0  0  0  0  2  0  0  0  0  0  0
    2.7260   -3.2700    4.3880 C   0  0  0  0  0  2  0  0  0  0  0  0
    3.9970   -3.4640    3.5680 C   0  0  0  0  0  2  0  0  0  0  0  0
    5.0060   -4.3530    4.2880 C   0  0  0  0  0  2  0  0  0  0  0  0
    5.3350   -3.8210    5.6820 C   0  0  0  0  0  2  0  0  0  0  0  0
    7.3290    0.8990   10.4350 C   0  0  0  0  0  0  0  0  0  0  0  0
    7.7390    1.9070    9.7800 O   0  0  0  0  0  0  0  0  0  0  0  0
    7.5180    0.6900   11.6750 O   0  0  0  0  0  1  0  0  0  0  0  0
    0.6830   -8.3760    9.3580 O   0  0  0  0  0  0  0  0  0  0  0  0
    0.3610   -8.9940    8.1060 C   0  0  0  0  0  2  0  0  0  0  0  0
   -2.9890   -7.3730    7.2690 C   0  0  0  0  0  0  0  0  0  0  0  0
   -2.7240   -6.7850    6.0310 C   0  0  0  0  0  3  0  0  0  0  0  0
   -1.4660   -6.9240    5.4410 C   0  0  0  0  0  3  0  0  0  0  0  0
   -0.4370   -7.6420    6.0770 C   0  0  0  0  0  0  0  0  0  0  0  0
   -0.6940   -8.2140    7.3440 C   0  0  0  0  0  0  0  0  0  0  0  0
   -1.9770   -8.0830    7.9210 C   0  0  0  0  0  3  0  0  0  0  0  0
    0.8590   -7.7680    5.3950 C   0  0  0  0  0  0  0  0  0  0  0  0
    1.8450   -6.7780    5.5400 C   0  0  0  0  0  3  0  0  0  0  0  0
    3.0740   -6.8930    4.8830 C   0  0  0  0  0  3  0  0  0  0  0  0
    3.3240   -7.9980    4.0730 C   0  0  0  0  0  0  0  0  0  0  0  0
    4.8370   -8.1400    3.2640 Cl  0  0  0  0  0  0  0  0  0  0  0  0
    2.3580   -8.9880    3.9120 C   0  0  0  0  0  3  0  0  0  0  0  0
    1.1300   -8.8690    4.5690 C   0  0  0  0  0  3  0  0  0  0  0  0
   -4.9510   -8.3410    8.6420 C   0  0  0  0  0  1  0  0  0  0  0  0
   -4.3480   -7.2030    7.8600 C   0  0  0  0  0  0  0  0  0  0  0  0
   -4.9400   -6.1340    7.7200 O   0  0  0  0  0  0  0  0  0  0  0  0
  1 25  1  0  0  0  0
  1  6  1  0  0  0  0
  2  1  2  0  0  0  0
  3  2  1  0  0  0  0
  3  4  2  0  0  0  0
  4  5  1  0  0  0  0
  5  6  2  0  0  0  0
  7  4  1  0  0  0  0
  7  8  2  0  0  0  0
  9  8  1  0  0  0  0
  9 10  1  0  0  0  0
 11 10  2  0  0  0  0
 11 22  1  0  0  0  0
 12 11  1  0  0  0  0
 13 14  1  0  0  0  0
 13 12  2  0  0  0  0
 14  9  2  0  0  0  0
 15 14  1  0  0  0  0
 15  7  1  0  0  0  0
 16 15  1  0  0  0  0
 17 16  1  0  0  0  0
 18 17  1  0  0  0  0
 19 20  1  0  0  0  0
 19 18  1  0  0  0  0
 20 21  1  0  0  0  0
 21 16  1  0  0  0  0
 22 24  1  0  0  0  0
 23 22  2  0  0  0  0
 26 25  1  0  0  0  0
 27 41  1  0  0  0  0
 27 32  1  0  0  0  0
 28 27  2  0  0  0  0
 29 28  1  0  0  0  0
 29 30  2  0  0  0  0
 30 31  1  0  0  0  0
 31 32  2  0  0  0  0
 31 26  1  0  0  0  0
 33 34  1  0  0  0  0
 33 30  1  0  0  0  0
 35 34  2  0  0  0  0
 36 35  1  0  0  0  0
 37 36  1  0  0  0  0
 38 36  2  0  0  0  0
 38 39  1  0  0  0  0
 39 33  2  0  0  0  0
 41 40  1  0  0  0  0
 42 41  2  0  0  0  0
M  END
>  <minimizedAffinity>
-7.84993362

$$$$
