
 OpenBabel09122222393D

 42 47  0  0  0  0  0  0  0  0999 V2000
    1.3880   -7.4540    6.8590 C   0  0  0  0  0  0  0  0  0  0  0  0
    1.0960   -6.4730    5.9130 C   0  0  0  0  0  3  0  0  0  0  0  0
    2.0020   -6.2200    4.8800 C   0  0  0  0  0  3  0  0  0  0  0  0
    3.1830   -6.9660    4.7800 C   0  0  0  0  0  0  0  0  0  0  0  0
    3.4630   -7.9490    5.7370 C   0  0  0  0  0  3  0  0  0  0  0  0
    2.5590   -8.2040    6.7670 C   0  0  0  0  0  3  0  0  0  0  0  0
    4.1210   -6.7460    3.6850 C   0  0  0  0  0  0  0  0  0  0  0  0
    4.8830   -5.6790    3.5710 N   0  0  0  0  0  0  0  0  0  0  0  0
    5.6540   -5.8790    2.4530 C   0  0  0  0  0  0  0  0  0  0  0  0
    6.6380   -5.0500    1.8890 C   0  0  0  0  0  3  0  0  0  0  0  0
    7.3270   -5.4650    0.7330 C   0  0  0  0  0  0  0  0  0  0  0  0
    7.0070   -6.7100    0.1660 C   0  0  0  0  0  3  0  0  0  0  0  0
    6.0280   -7.5500    0.7110 C   0  0  0  0  0  3  0  0  0  0  0  0
    5.3640   -7.1070    1.8620 C   0  0  0  0  0  0  0  0  0  0  0  0
    4.3790   -7.6480    2.6640 N   0  0  0  0  0  0  0  0  0  0  0  0
    3.7470   -8.9550    2.5090 C   0  0  0  0  0  3  0  0  0  0  0  0
    3.0030   -9.1030    1.1720 C   0  0  0  0  0  2  0  0  0  0  0  0
    2.3050  -10.4580    1.0730 C   0  0  0  0  0  2  0  0  0  0  0  0
    3.2730  -11.6120    1.3200 C   0  0  0  0  0  2  0  0  0  0  0  0
    3.9970  -11.4670    2.6570 C   0  0  0  0  0  2  0  0  0  0  0  0
    4.7130  -10.1230    2.7680 C   0  0  0  0  0  2  0  0  0  0  0  0
    8.3970   -4.5880    0.1120 C   0  0  0  0  0  0  0  0  0  0  0  0
    8.9930   -3.7670    0.8770 O   0  0  0  0  0  1  0  0  0  0  0  0
    8.6180   -4.7410   -1.1310 O   0  0  0  0  0  0  0  0  0  0  0  0
    0.5110   -7.7690    7.8600 O   0  0  0  0  0  0  0  0  0  0  0  0
    0.4640   -6.7770    8.8930 C   0  0  0  0  0  2  0  0  0  0  0  0
    2.7440   -8.2590   11.5690 C   0  0  0  0  0  0  0  0  0  0  0  0
    3.7310   -7.2790   11.6820 C   0  0  0  0  0  3  0  0  0  0  0  0
    3.6610   -6.1160   10.9120 C   0  0  0  0  0  3  0  0  0  0  0  0
    2.6100   -5.9080    9.9990 C   0  0  0  0  0  0  0  0  0  0  0  0
    1.6250   -6.9130    9.8610 C   0  0  0  0  0  0  0  0  0  0  0  0
    1.6970   -8.0750   10.6600 C   0  0  0  0  0  3  0  0  0  0  0  0
    2.5820   -4.6560    9.2320 C   0  0  0  0  0  0  0  0  0  0  0  0
    3.2490   -4.5540    8.0000 C   0  0  0  0  0  3  0  0  0  0  0  0
    3.2300   -3.3590    7.2740 C   0  0  0  0  0  3  0  0  0  0  0  0
    2.5480   -2.2540    7.7780 C   0  0  0  0  0  0  0  0  0  0  0  0
    2.5250   -0.7820    6.8860 Cl  0  0  0  0  0  0  0  0  0  0  0  0
    1.8840   -2.3330    9.0000 C   0  0  0  0  0  3  0  0  0  0  0  0
    1.9060   -3.5280    9.7240 C   0  0  0  0  0  3  0  0  0  0  0  0
    4.1780   -9.8010   13.0650 C   0  0  0  0  0  1  0  0  0  0  0  0
    2.8570   -9.4830   12.4140 C   0  0  0  0  0  0  0  0  0  0  0  0
    1.8690  -10.1960   12.5820 O   0  0  0  0  0  0  0  0  0  0  0  0
  1 25  1  0  0  0  0
  2  1  2  0  0  0  0
  3  2  1  0  0  0  0
  4  3  2  0  0  0  0
  4  5  1  0  0  0  0
  5  6  2  0  0  0  0
  6  1  1  0  0  0  0
  7  4  1  0  0  0  0
  8  7  2  0  0  0  0
  9  8  1  0  0  0  0
 10  9  1  0  0  0  0
 11 10  2  0  0  0  0
 12 13  2  0  0  0  0
 12 11  1  0  0  0  0
 13 14  1  0  0  0  0
 14  9  2  0  0  0  0
 14 15  1  0  0  0  0
 15  7  1  0  0  0  0
 16 15  1  0  0  0  0
 16 21  1  0  0  0  0
 17 16  1  0  0  0  0
 18 17  1  0  0  0  0
 18 19  1  0  0  0  0
 19 20  1  0  0  0  0
 20 21  1  0  0  0  0
 22 11  1  0  0  0  0
 22 23  1  0  0  0  0
 24 22  2  0  0  0  0
 25 26  1  0  0  0  0
 26 31  1  0  0  0  0
 27 28  1  0  0  0  0
 27 41  1  0  0  0  0
 29 28  2  0  0  0  0
 30 29  1  0  0  0  0
 31 30  2  0  0  0  0
 31 32  1  0  0  0  0
 32 27  2  0  0  0  0
 33 39  1  0  0  0  0
 33 30  1  0  0  0  0
 34 33  2  0  0  0  0
 35 36  2  0  0  0  0
 35 34  1  0  0  0  0
 36 38  1  0  0  0  0
 37 36  1  0  0  0  0
 38 39  2  0  0  0  0
 41 42  2  0  0  0  0
 41 40  1  0  0  0  0
M  END
>  <minimizedAffinity>
-7.94083261

$$$$
