
 OpenBabel09122222393D

 42 47  0  0  0  0  0  0  0  0999 V2000
    5.4720   -2.4520    9.2640 C   0  0  0  0  0  0  0  0  0  0  0  0
    5.3820   -1.4120    8.3390 C   0  0  0  0  0  3  0  0  0  0  0  0
    6.0990   -1.4910    7.1430 C   0  0  0  0  0  3  0  0  0  0  0  0
    6.8810   -2.6190    6.8620 C   0  0  0  0  0  0  0  0  0  0  0  0
    6.9610   -3.6550    7.8000 C   0  0  0  0  0  3  0  0  0  0  0  0
    6.2440   -3.5800    8.9930 C   0  0  0  0  0  3  0  0  0  0  0  0
    7.6030   -2.7370    5.6000 C   0  0  0  0  0  0  0  0  0  0  0  0
    7.1820   -3.4440    4.5730 N   0  0  0  0  0  0  0  0  0  0  0  0
    8.1030   -3.2510    3.5740 C   0  0  0  0  0  0  0  0  0  0  0  0
    8.1250   -3.7720    2.2700 C   0  0  0  0  0  3  0  0  0  0  0  0
    9.1720   -3.4250    1.3940 C   0  0  0  0  0  0  0  0  0  0  0  0
   10.1800   -2.5620    1.8520 C   0  0  0  0  0  3  0  0  0  0  0  0
   10.1780   -2.0350    3.1500 C   0  0  0  0  0  3  0  0  0  0  0  0
    9.1210   -2.3980    3.9940 C   0  0  0  0  0  0  0  0  0  0  0  0
    8.7850   -2.0790    5.2940 N   0  0  0  0  0  0  0  0  0  0  0  0
    9.5050   -1.1750    6.1860 C   0  0  0  0  0  3  0  0  0  0  0  0
   10.5160   -1.9030    7.0860 C   0  0  0  0  0  2  0  0  0  0  0  0
   11.2050   -0.9340    8.0450 C   0  0  0  0  0  2  0  0  0  0  0  0
   11.8400    0.2390    7.3040 C   0  0  0  0  0  2  0  0  0  0  0  0
   10.8280    0.9680    6.4240 C   0  0  0  0  0  2  0  0  0  0  0  0
   10.1390    0.0160    5.4480 C   0  0  0  0  0  2  0  0  0  0  0  0
    9.2100   -3.9710   -0.0210 C   0  0  0  0  0  0  0  0  0  0  0  0
    8.6680   -5.1020   -0.2240 O   0  0  0  0  0  1  0  0  0  0  0  0
    9.7830   -3.2530   -0.9010 O   0  0  0  0  0  0  0  0  0  0  0  0
    4.7510   -2.4410   10.4260 O   0  0  0  0  0  0  0  0  0  0  0  0
    3.3550   -2.2020   10.2140 C   0  0  0  0  0  2  0  0  0  0  0  0
    1.3600   -5.0290   11.8210 C   0  0  0  0  0  0  0  0  0  0  0  0
    1.0070   -5.8000   10.7130 C   0  0  0  0  0  3  0  0  0  0  0  0
    1.4280   -5.4290    9.4340 C   0  0  0  0  0  3  0  0  0  0  0  0
    2.2010   -4.2710    9.2280 C   0  0  0  0  0  0  0  0  0  0  0  0
    2.5360   -3.4730   10.3460 C   0  0  0  0  0  0  0  0  0  0  0  0
    2.1200   -3.8700   11.6360 C   0  0  0  0  0  3  0  0  0  0  0  0
    2.6290   -3.9450    7.8610 C   0  0  0  0  0  0  0  0  0  0  0  0
    3.4320   -4.8350    7.1290 C   0  0  0  0  0  3  0  0  0  0  0  0
    3.8480   -4.5200    5.8320 C   0  0  0  0  0  3  0  0  0  0  0  0
    3.4680   -3.3090    5.2580 C   0  0  0  0  0  0  0  0  0  0  0  0
    3.9810   -2.9200    3.6620 Cl  0  0  0  0  0  0  0  0  0  0  0  0
    2.6770   -2.4100    5.9690 C   0  0  0  0  0  3  0  0  0  0  0  0
    2.2640   -2.7270    7.2660 C   0  0  0  0  0  3  0  0  0  0  0  0
    1.1740   -6.8750   13.6180 C   0  0  0  0  0  1  0  0  0  0  0  0
    0.8930   -5.4650   13.1690 C   0  0  0  0  0  0  0  0  0  0  0  0
    0.3070   -4.6630   13.8950 O   0  0  0  0  0  0  0  0  0  0  0  0
  1 25  1  0  0  0  0
  2  1  2  0  0  0  0
  3  2  1  0  0  0  0
  4  3  2  0  0  0  0
  4  5  1  0  0  0  0
  5  6  2  0  0  0  0
  6  1  1  0  0  0  0
  7  4  1  0  0  0  0
  8  7  2  0  0  0  0
  9 14  1  0  0  0  0
  9  8  1  0  0  0  0
 10  9  2  0  0  0  0
 11 12  2  0  0  0  0
 11 10  1  0  0  0  0
 12 13  1  0  0  0  0
 13 14  2  0  0  0  0
 14 15  1  0  0  0  0
 15  7  1  0  0  0  0
 15 16  1  0  0  0  0
 16 17  1  0  0  0  0
 17 18  1  0  0  0  0
 19 18  1  0  0  0  0
 20 19  1  0  0  0  0
 21 16  1  0  0  0  0
 21 20  1  0  0  0  0
 22 11  1  0  0  0  0
 23 22  1  0  0  0  0
 24 22  2  0  0  0  0
 26 31  1  0  0  0  0
 26 25  1  0  0  0  0
 27 41  1  0  0  0  0
 28 27  2  0  0  0  0
 29 28  1  0  0  0  0
 30 29  2  0  0  0  0
 30 31  1  0  0  0  0
 31 32  2  0  0  0  0
 32 27  1  0  0  0  0
 33 30  1  0  0  0  0
 34 33  2  0  0  0  0
 35 34  1  0  0  0  0
 36 35  2  0  0  0  0
 36 38  1  0  0  0  0
 37 36  1  0  0  0  0
 38 39  2  0  0  0  0
 39 33  1  0  0  0  0
 41 40  1  0  0  0  0
 41 42  2  0  0  0  0
M  END
>  <minimizedAffinity>
-8.1021204

$$$$
