
 OpenBabel09122222393D

 42 47  0  0  0  0  0  0  0  0999 V2000
    3.9310   -3.4340    4.5520 C   0  0  0  0  0  0  0  0  0  0  0  0
    5.1360   -3.6710    5.2130 C   0  0  0  0  0  3  0  0  0  0  0  0
    5.3770   -3.0590    6.4450 C   0  0  0  0  0  3  0  0  0  0  0  0
    4.4040   -2.2340    7.0250 C   0  0  0  0  0  0  0  0  0  0  0  0
    3.1990   -2.0070    6.3500 C   0  0  0  0  0  3  0  0  0  0  0  0
    2.9550   -2.6190    5.1210 C   0  0  0  0  0  3  0  0  0  0  0  0
    4.6210   -1.6200    8.3300 C   0  0  0  0  0  0  0  0  0  0  0  0
    5.2380   -0.4710    8.5110 N   0  0  0  0  0  0  0  0  0  0  0  0
    5.1820   -0.2170    9.8580 C   0  0  0  0  0  0  0  0  0  0  0  0
    5.6820    0.8800   10.5790 C   0  0  0  0  0  3  0  0  0  0  0  0
    5.4970    0.9460   11.9740 C   0  0  0  0  0  0  0  0  0  0  0  0
    4.8130   -0.0990   12.6160 C   0  0  0  0  0  3  0  0  0  0  0  0
    4.3090   -1.2020   11.9150 C   0  0  0  0  0  3  0  0  0  0  0  0
    4.5080   -1.2350   10.5300 C   0  0  0  0  0  0  0  0  0  0  0  0
    4.1570   -2.1250    9.5350 N   0  0  0  0  0  0  0  0  0  0  0  0
    3.3910   -3.3580    9.6970 C   0  0  0  0  0  3  0  0  0  0  0  0
    4.0800   -4.3710   10.6260 C   0  0  0  0  0  2  0  0  0  0  0  0
    3.2800   -5.6680   10.7230 C   0  0  0  0  0  2  0  0  0  0  0  0
    1.8320   -5.4110   11.1300 C   0  0  0  0  0  2  0  0  0  0  0  0
    1.1490   -4.4170   10.1940 C   0  0  0  0  0  2  0  0  0  0  0  0
    1.9280   -3.1070   10.0960 C   0  0  0  0  0  2  0  0  0  0  0  0
    6.0230    2.1250   12.7700 C   0  0  0  0  0  0  0  0  0  0  0  0
    6.7690    1.8690   13.7660 O   0  0  0  0  0  1  0  0  0  0  0  0
    5.6770    3.2850   12.3790 O   0  0  0  0  0  0  0  0  0  0  0  0
    3.6310   -4.0480    3.3670 O   0  0  0  0  0  0  0  0  0  0  0  0
    4.7860   -4.2820    2.5520 C   0  0  0  0  0  2  0  0  0  0  0  0
    4.3950   -8.0650    2.8570 C   0  0  0  0  0  0  0  0  0  0  0  0
    5.5200   -8.5270    2.1740 C   0  0  0  0  0  3  0  0  0  0  0  0
    6.4320   -7.6230    1.6250 C   0  0  0  0  0  3  0  0  0  0  0  0
    6.2370   -6.2340    1.7330 C   0  0  0  0  0  0  0  0  0  0  0  0
    5.0820   -5.7630    2.4000 C   0  0  0  0  0  0  0  0  0  0  0  0
    4.1780   -6.6880    2.9670 C   0  0  0  0  0  3  0  0  0  0  0  0
    7.2420   -5.3340    1.1520 C   0  0  0  0  0  0  0  0  0  0  0  0
    7.8840   -4.3680    1.9440 C   0  0  0  0  0  3  0  0  0  0  0  0
    8.8330   -3.5050    1.3890 C   0  0  0  0  0  3  0  0  0  0  0  0
    9.1440   -3.5970    0.0340 C   0  0  0  0  0  0  0  0  0  0  0  0
   10.3120   -2.5340   -0.6500 Cl  0  0  0  0  0  0  0  0  0  0  0  0
    8.5140   -4.5440   -0.7700 C   0  0  0  0  0  3  0  0  0  0  0  0
    7.5650   -5.4040   -0.2120 C   0  0  0  0  0  3  0  0  0  0  0  0
    3.8020   -9.7400    4.7320 C   0  0  0  0  0  1  0  0  0  0  0  0
    3.4500   -9.0660    3.4310 C   0  0  0  0  0  0  0  0  0  0  0  0
    2.3950   -9.3070    2.8470 O   0  0  0  0  0  0  0  0  0  0  0  0
  1  6  2  0  0  0  0
  1  2  1  0  0  0  0
  2  3  2  0  0  0  0
  3  4  1  0  0  0  0
  4  7  1  0  0  0  0
  5  4  2  0  0  0  0
  6  5  1  0  0  0  0
  7  8  2  0  0  0  0
  7 15  1  0  0  0  0
  8  9  1  0  0  0  0
  9 14  2  0  0  0  0
  9 10  1  0  0  0  0
 10 11  2  0  0  0  0
 11 12  1  0  0  0  0
 11 22  1  0  0  0  0
 13 12  2  0  0  0  0
 14 13  1  0  0  0  0
 15 16  1  0  0  0  0
 15 14  1  0  0  0  0
 16 21  1  0  0  0  0
 16 17  1  0  0  0  0
 17 18  1  0  0  0  0
 18 19  1  0  0  0  0
 20 19  1  0  0  0  0
 21 20  1  0  0  0  0
 22 23  1  0  0  0  0
 24 22  2  0  0  0  0
 25  1  1  0  0  0  0
 26 25  1  0  0  0  0
 27 32  1  0  0  0  0
 27 41  1  0  0  0  0
 28 27  2  0  0  0  0
 29 30  2  0  0  0  0
 29 28  1  0  0  0  0
 30 31  1  0  0  0  0
 31 26  1  0  0  0  0
 31 32  2  0  0  0  0
 33 30  1  0  0  0  0
 33 34  1  0  0  0  0
 35 34  2  0  0  0  0
 36 35  1  0  0  0  0
 37 36  1  0  0  0  0
 38 39  1  0  0  0  0
 38 36  2  0  0  0  0
 39 33  2  0  0  0  0
 41 40  1  0  0  0  0
 42 41  2  0  0  0  0
M  END
>  <minimizedAffinity>
-7.8586545

$$$$
