
 OpenBabel09122222393D

 42 47  0  0  0  0  0  0  0  0999 V2000
    3.5100   -1.0070    7.8570 C   0  0  0  0  0  0  0  0  0  0  0  0
    2.3820   -1.5870    7.2780 C   0  0  0  0  0  3  0  0  0  0  0  0
    2.5390   -2.5200    6.2500 C   0  0  0  0  0  3  0  0  0  0  0  0
    3.8210   -2.8900    5.8230 C   0  0  0  0  0  0  0  0  0  0  0  0
    4.9430   -2.2990    6.4150 C   0  0  0  0  0  3  0  0  0  0  0  0
    4.7890   -1.3700    7.4430 C   0  0  0  0  0  3  0  0  0  0  0  0
    4.0050   -3.8930    4.7800 C   0  0  0  0  0  0  0  0  0  0  0  0
    4.3840   -3.6160    3.5500 N   0  0  0  0  0  0  0  0  0  0  0  0
    4.4960   -4.8230    2.9060 C   0  0  0  0  0  0  0  0  0  0  0  0
    4.8750   -5.0930    1.5810 C   0  0  0  0  0  3  0  0  0  0  0  0
    4.9400   -6.4250    1.1270 C   0  0  0  0  0  0  0  0  0  0  0  0
    4.6170   -7.4600    2.0200 C   0  0  0  0  0  3  0  0  0  0  0  0
    4.2340   -7.2110    3.3440 C   0  0  0  0  0  3  0  0  0  0  0  0
    4.1820   -5.8760    3.7630 C   0  0  0  0  0  0  0  0  0  0  0  0
    3.8690   -5.2610    4.9580 N   0  0  0  0  0  0  0  0  0  0  0  0
    3.5070   -5.9200    6.2100 C   0  0  0  0  0  3  0  0  0  0  0  0
    4.3190   -5.4070    7.4110 C   0  0  0  0  0  2  0  0  0  0  0  0
    3.9550   -6.1610    8.6890 C   0  0  0  0  0  2  0  0  0  0  0  0
    2.4540   -6.1270    8.9570 C   0  0  0  0  0  2  0  0  0  0  0  0
    1.6540   -6.6530    7.7680 C   0  0  0  0  0  2  0  0  0  0  0  0
    1.9940   -5.9000    6.4820 C   0  0  0  0  0  2  0  0  0  0  0  0
    5.3540   -6.7390   -0.2980 C   0  0  0  0  0  0  0  0  0  0  0  0
    5.0470   -7.8840   -0.7550 O   0  0  0  0  0  1  0  0  0  0  0  0
    5.9780   -5.8290   -0.9300 O   0  0  0  0  0  0  0  0  0  0  0  0
    3.4070   -0.1250    8.8980 O   0  0  0  0  0  0  0  0  0  0  0  0
    4.3900   -0.3490    9.9160 C   0  0  0  0  0  2  0  0  0  0  0  0
    2.4610   -2.7190   12.1990 C   0  0  0  0  0  0  0  0  0  0  0  0
    3.3540   -3.7820   12.3340 C   0  0  0  0  0  3  0  0  0  0  0  0
    4.6020   -3.7370   11.7070 C   0  0  0  0  0  3  0  0  0  0  0  0
    4.9830   -2.6350   10.9190 C   0  0  0  0  0  0  0  0  0  0  0  0
    4.0670   -1.5700   10.7580 C   0  0  0  0  0  0  0  0  0  0  0  0
    2.8170   -1.6190   11.4120 C   0  0  0  0  0  3  0  0  0  0  0  0
    6.3160   -2.6380   10.3020 C   0  0  0  0  0  0  0  0  0  0  0  0
    7.2180   -1.5880   10.5380 C   0  0  0  0  0  3  0  0  0  0  0  0
    8.4830   -1.5850    9.9430 C   0  0  0  0  0  3  0  0  0  0  0  0
    8.8550   -2.6320    9.1030 C   0  0  0  0  0  0  0  0  0  0  0  0
   10.4120   -2.6300    8.3690 Cl  0  0  0  0  0  0  0  0  0  0  0  0
    7.9730   -3.6810    8.8520 C   0  0  0  0  0  3  0  0  0  0  0  0
    6.7090   -3.6790    9.4470 C   0  0  0  0  0  3  0  0  0  0  0  0
    0.6780   -1.6460   13.7290 C   0  0  0  0  0  1  0  0  0  0  0  0
    1.1410   -2.8080   12.8890 C   0  0  0  0  0  0  0  0  0  0  0  0
    0.4480   -3.8130   12.7430 O   0  0  0  0  0  0  0  0  0  0  0  0
  1 25  1  0  0  0  0
  2  1  2  0  0  0  0
  3  2  1  0  0  0  0
  4  3  2  0  0  0  0
  4  5  1  0  0  0  0
  5  6  2  0  0  0  0
  6  1  1  0  0  0  0
  7 15  1  0  0  0  0
  7  4  1  0  0  0  0
  8  7  2  0  0  0  0
  9  8  1  0  0  0  0
  9 14  1  0  0  0  0
 10  9  2  0  0  0  0
 11 10  1  0  0  0  0
 11 12  2  0  0  0  0
 12 13  1  0  0  0  0
 13 14  2  0  0  0  0
 14 15  1  0  0  0  0
 15 16  1  0  0  0  0
 16 21  1  0  0  0  0
 16 17  1  0  0  0  0
 17 18  1  0  0  0  0
 18 19  1  0  0  0  0
 20 19  1  0  0  0  0
 21 20  1  0  0  0  0
 22 11  1  0  0  0  0
 23 22  1  0  0  0  0
 24 22  2  0  0  0  0
 25 26  1  0  0  0  0
 26 31  1  0  0  0  0
 27 28  1  0  0  0  0
 27 41  1  0  0  0  0
 29 28  2  0  0  0  0
 30 29  1  0  0  0  0
 31 30  2  0  0  0  0
 31 32  1  0  0  0  0
 32 27  2  0  0  0  0
 33 34  1  0  0  0  0
 33 30  1  0  0  0  0
 35 34  2  0  0  0  0
 36 35  1  0  0  0  0
 37 36  1  0  0  0  0
 38 36  2  0  0  0  0
 38 39  1  0  0  0  0
 39 33  2  0  0  0  0
 41 40  1  0  0  0  0
 42 41  2  0  0  0  0
M  END
>  <minimizedAffinity>
-7.93801498

$$$$
