
 OpenBabel09122222393D

 42 47  0  0  0  0  0  0  0  0999 V2000
    3.4260   -1.2090    7.3770 C   0  0  0  0  0  0  0  0  0  0  0  0
    2.3390   -1.5990    6.5960 C   0  0  0  0  0  3  0  0  0  0  0  0
    2.5250   -2.5330    5.5740 C   0  0  0  0  0  3  0  0  0  0  0  0
    3.7890   -3.0940    5.3530 C   0  0  0  0  0  0  0  0  0  0  0  0
    4.8710   -2.6940    6.1460 C   0  0  0  0  0  3  0  0  0  0  0  0
    4.6870   -1.7640    7.1680 C   0  0  0  0  0  3  0  0  0  0  0  0
    3.9940   -4.1010    4.3170 C   0  0  0  0  0  0  0  0  0  0  0  0
    4.5160   -3.8480    3.1360 N   0  0  0  0  0  0  0  0  0  0  0  0
    4.5930   -5.0550    2.4870 C   0  0  0  0  0  0  0  0  0  0  0  0
    5.0800   -5.3460    1.2020 C   0  0  0  0  0  3  0  0  0  0  0  0
    5.0790   -6.6750    0.7360 C   0  0  0  0  0  0  0  0  0  0  0  0
    4.5830   -7.6860    1.5750 C   0  0  0  0  0  3  0  0  0  0  0  0
    4.0900   -7.4160    2.8590 C   0  0  0  0  0  3  0  0  0  0  0  0
    4.1080   -6.0840    3.2910 C   0  0  0  0  0  0  0  0  0  0  0  0
    3.7280   -5.4540    4.4590 N   0  0  0  0  0  0  0  0  0  0  0  0
    3.1880   -6.0890    5.6580 C   0  0  0  0  0  3  0  0  0  0  0  0
    3.8450   -5.5790    6.9510 C   0  0  0  0  0  2  0  0  0  0  0  0
    3.2980   -6.3090    8.1760 C   0  0  0  0  0  2  0  0  0  0  0  0
    1.7750   -6.2410    8.2420 C   0  0  0  0  0  2  0  0  0  0  0  0
    1.1290   -6.7640    6.9620 C   0  0  0  0  0  2  0  0  0  0  0  0
    1.6530   -6.0350    5.7260 C   0  0  0  0  0  2  0  0  0  0  0  0
    5.6070   -7.0120   -0.6450 C   0  0  0  0  0  0  0  0  0  0  0  0
    6.2870   -6.1200   -1.2420 O   0  0  0  0  0  0  0  0  0  0  0  0
    5.3280   -8.1650   -1.1040 O   0  0  0  0  0  1  0  0  0  0  0  0
    3.2830   -0.3350    8.4190 O   0  0  0  0  0  0  0  0  0  0  0  0
    2.2920   -0.7540    9.3650 C   0  0  0  0  0  2  0  0  0  0  0  0
    2.6080   -3.9380   11.4420 C   0  0  0  0  0  0  0  0  0  0  0  0
    3.7780   -3.6980   12.1630 C   0  0  0  0  0  3  0  0  0  0  0  0
    4.4680   -2.4940   12.0040 C   0  0  0  0  0  3  0  0  0  0  0  0
    4.0150   -1.5060   11.1120 C   0  0  0  0  0  0  0  0  0  0  0  0
    2.8460   -1.7590   10.3590 C   0  0  0  0  0  0  0  0  0  0  0  0
    2.1460   -2.9720   10.5430 C   0  0  0  0  0  3  0  0  0  0  0  0
    4.7750   -0.2520   11.0040 C   0  0  0  0  0  0  0  0  0  0  0  0
    4.2860    0.9340   11.5760 C   0  0  0  0  0  3  0  0  0  0  0  0
    5.0030    2.1290   11.4640 C   0  0  0  0  0  3  0  0  0  0  0  0
    6.2140    2.1470   10.7760 C   0  0  0  0  0  0  0  0  0  0  0  0
    7.0980    3.6180   10.6380 Cl  0  0  0  0  0  0  0  0  0  0  0  0
    6.7140    0.9830   10.1980 C   0  0  0  0  0  3  0  0  0  0  0  0
    5.9930   -0.2090   10.3100 C   0  0  0  0  0  3  0  0  0  0  0  0
    0.3980   -5.2700   11.5520 C   0  0  0  0  0  1  0  0  0  0  0  0
    1.9010   -5.2360   11.6460 C   0  0  0  0  0  0  0  0  0  0  0  0
    2.5550   -6.2540   11.8640 O   0  0  0  0  0  0  0  0  0  0  0  0
  1 25  1  0  0  0  0
  2  1  2  0  0  0  0
  3  2  1  0  0  0  0
  4  3  2  0  0  0  0
  4  5  1  0  0  0  0
  5  6  2  0  0  0  0
  6  1  1  0  0  0  0
  7 15  1  0  0  0  0
  7  4  1  0  0  0  0
  8  7  2  0  0  0  0
  9  8  1  0  0  0  0
  9 14  1  0  0  0  0
 10  9  2  0  0  0  0
 11 10  1  0  0  0  0
 11 12  2  0  0  0  0
 12 13  1  0  0  0  0
 13 14  2  0  0  0  0
 14 15  1  0  0  0  0
 15 16  1  0  0  0  0
 16 21  1  0  0  0  0
 16 17  1  0  0  0  0
 17 18  1  0  0  0  0
 18 19  1  0  0  0  0
 20 19  1  0  0  0  0
 21 20  1  0  0  0  0
 22 11  1  0  0  0  0
 23 22  2  0  0  0  0
 24 22  1  0  0  0  0
 25 26  1  0  0  0  0
 26 31  1  0  0  0  0
 27 41  1  0  0  0  0
 27 28  1  0  0  0  0
 29 28  2  0  0  0  0
 30 29  1  0  0  0  0
 31 32  1  0  0  0  0
 31 30  2  0  0  0  0
 32 27  2  0  0  0  0
 33 30  1  0  0  0  0
 33 34  1  0  0  0  0
 35 34  2  0  0  0  0
 36 35  1  0  0  0  0
 37 36  1  0  0  0  0
 38 39  1  0  0  0  0
 38 36  2  0  0  0  0
 39 33  2  0  0  0  0
 40 41  1  0  0  0  0
 41 42  2  0  0  0  0
M  END
>  <minimizedAffinity>
-8.15840626

$$$$
