
 OpenBabel09122222393D

 42 47  0  0  0  0  0  0  0  0999 V2000
    2.7770   -9.2490    2.5760 C   0  0  0  0  0  0  0  0  0  0  0  0
    3.5600   -8.8140    3.6440 C   0  0  0  0  0  3  0  0  0  0  0  0
    4.5990   -7.9090    3.4110 C   0  0  0  0  0  3  0  0  0  0  0  0
    4.8350   -7.4230    2.1190 C   0  0  0  0  0  0  0  0  0  0  0  0
    4.0390   -7.8680    1.0570 C   0  0  0  0  0  3  0  0  0  0  0  0
    3.0000   -8.7690    1.2870 C   0  0  0  0  0  3  0  0  0  0  0  0
    5.8880   -6.4460    1.8640 C   0  0  0  0  0  0  0  0  0  0  0  0
    6.8150   -6.5860    0.9390 N   0  0  0  0  0  0  0  0  0  0  0  0
    7.5680   -5.4390    0.9790 C   0  0  0  0  0  0  0  0  0  0  0  0
    8.6770   -5.0740    0.1970 C   0  0  0  0  0  3  0  0  0  0  0  0
    9.2960   -3.8260    0.3980 C   0  0  0  0  0  0  0  0  0  0  0  0
    8.7880   -2.9700    1.3890 C   0  0  0  0  0  3  0  0  0  0  0  0
    7.6860   -3.3170    2.1810 C   0  0  0  0  0  3  0  0  0  0  0  0
    7.0920   -4.5640    1.9530 C   0  0  0  0  0  0  0  0  0  0  0  0
    6.0160   -5.2260    2.5100 N   0  0  0  0  0  0  0  0  0  0  0  0
    5.1300   -4.7260    3.5570 C   0  0  0  0  0  3  0  0  0  0  0  0
    5.8850   -3.9910    4.6770 C   0  0  0  0  0  2  0  0  0  0  0  0
    4.9340   -3.5360    5.7820 C   0  0  0  0  0  2  0  0  0  0  0  0
    3.7810   -2.7040    5.2280 C   0  0  0  0  0  2  0  0  0  0  0  0
    3.0250   -3.4450    4.1280 C   0  0  0  0  0  2  0  0  0  0  0  0
    3.9590   -3.8960    3.0060 C   0  0  0  0  0  2  0  0  0  0  0  0
   10.4900   -3.4100   -0.4400 C   0  0  0  0  0  0  0  0  0  0  0  0
   11.5210   -4.1510   -0.3940 O   0  0  0  0  0  1  0  0  0  0  0  0
   10.3680   -2.3480   -1.1290 O   0  0  0  0  0  0  0  0  0  0  0  0
    1.7190  -10.0960    2.7620 O   0  0  0  0  0  0  0  0  0  0  0  0
    1.4520  -10.3580    4.1450 C   0  0  0  0  0  2  0  0  0  0  0  0
   -2.3590  -10.1900    4.2410 C   0  0  0  0  0  0  0  0  0  0  0  0
   -2.5800   -9.2080    5.2070 C   0  0  0  0  0  3  0  0  0  0  0  0
   -1.5010   -8.5710    5.8240 C   0  0  0  0  0  3  0  0  0  0  0  0
   -0.1740   -8.9070    5.5010 C   0  0  0  0  0  0  0  0  0  0  0  0
    0.0530   -9.9230    4.5440 C   0  0  0  0  0  0  0  0  0  0  0  0
   -1.0470  -10.5460    3.9140 C   0  0  0  0  0  3  0  0  0  0  0  0
    0.9180   -8.1870    6.1710 C   0  0  0  0  0  0  0  0  0  0  0  0
    1.5530   -8.7340    7.2980 C   0  0  0  0  0  3  0  0  0  0  0  0
    2.5850   -8.0440    7.9410 C   0  0  0  0  0  3  0  0  0  0  0  0
    2.9870   -6.7990    7.4650 C   0  0  0  0  0  0  0  0  0  0  0  0
    4.2570   -5.9490    8.2560 Cl  0  0  0  0  0  0  0  0  0  0  0  0
    2.3670   -6.2370    6.3510 C   0  0  0  0  0  3  0  0  0  0  0  0
    1.3340   -6.9280    5.7120 C   0  0  0  0  0  3  0  0  0  0  0  0
   -4.4520  -11.6870    4.4560 C   0  0  0  0  0  1  0  0  0  0  0  0
   -3.5400  -10.8420    3.6060 C   0  0  0  0  0  0  0  0  0  0  0  0
   -3.7610  -10.6610    2.4090 O   0  0  0  0  0  0  0  0  0  0  0  0
  1 25  1  0  0  0  0
  1  2  1  0  0  0  0
  3  2  2  0  0  0  0
  4  3  1  0  0  0  0
  5  6  1  0  0  0  0
  5  4  2  0  0  0  0
  6  1  2  0  0  0  0
  7  4  1  0  0  0  0
  7 15  1  0  0  0  0
  8  9  1  0  0  0  0
  8  7  2  0  0  0  0
  9 14  1  0  0  0  0
 10 11  1  0  0  0  0
 10  9  2  0  0  0  0
 11 12  2  0  0  0  0
 12 13  1  0  0  0  0
 14 13  2  0  0  0  0
 14 15  1  0  0  0  0
 15 16  1  0  0  0  0
 16 17  1  0  0  0  0
 17 18  1  0  0  0  0
 19 18  1  0  0  0  0
 20 19  1  0  0  0  0
 21 16  1  0  0  0  0
 21 20  1  0  0  0  0
 22 23  1  0  0  0  0
 22 11  1  0  0  0  0
 24 22  2  0  0  0  0
 25 26  1  0  0  0  0
 26 31  1  0  0  0  0
 27 28  1  0  0  0  0
 28 29  2  0  0  0  0
 30 29  1  0  0  0  0
 30 33  1  0  0  0  0
 31 30  2  0  0  0  0
 32 27  2  0  0  0  0
 32 31  1  0  0  0  0
 33 34  1  0  0  0  0
 34 35  2  0  0  0  0
 36 35  1  0  0  0  0
 36 37  1  0  0  0  0
 38 36  2  0  0  0  0
 39 33  2  0  0  0  0
 39 38  1  0  0  0  0
 41 27  1  0  0  0  0
 41 40  1  0  0  0  0
 42 41  2  0  0  0  0
M  END
>  <minimizedAffinity>
-8.35810566

$$$$
