
 OpenBabel09122222393D

 42 47  0  0  0  0  0  0  0  0999 V2000
    1.8110   -7.4800    9.1070 C   0  0  0  0  0  0  0  0  0  0  0  0
    1.6510   -6.0970    9.1840 C   0  0  0  0  0  3  0  0  0  0  0  0
    2.7550   -5.2640    8.9840 C   0  0  0  0  0  3  0  0  0  0  0  0
    4.0070   -5.8130    8.6810 C   0  0  0  0  0  0  0  0  0  0  0  0
    4.1520   -7.2040    8.6050 C   0  0  0  0  0  3  0  0  0  0  0  0
    3.0510   -8.0360    8.8020 C   0  0  0  0  0  3  0  0  0  0  0  0
    5.1620   -4.9590    8.4280 C   0  0  0  0  0  0  0  0  0  0  0  0
    6.2220   -4.9020    9.2070 N   0  0  0  0  0  0  0  0  0  0  0  0
    7.0960   -4.0370    8.5970 C   0  0  0  0  0  0  0  0  0  0  0  0
    8.3770   -3.6300    9.0060 C   0  0  0  0  0  3  0  0  0  0  0  0
    9.1160   -2.7340    8.2090 C   0  0  0  0  0  0  0  0  0  0  0  0
    8.5460   -2.2620    7.0160 C   0  0  0  0  0  3  0  0  0  0  0  0
    7.2690   -2.6530    6.5920 C   0  0  0  0  0  3  0  0  0  0  0  0
    6.5630   -3.5470    7.4070 C   0  0  0  0  0  0  0  0  0  0  0  0
    5.3240   -4.1480    7.3150 N   0  0  0  0  0  0  0  0  0  0  0  0
    4.3630   -4.0050    6.2250 C   0  0  0  0  0  3  0  0  0  0  0  0
    3.4770   -2.7570    6.3690 C   0  0  0  0  0  2  0  0  0  0  0  0
    2.4460   -2.6750    5.2450 C   0  0  0  0  0  2  0  0  0  0  0  0
    3.1030   -2.7550    3.8700 C   0  0  0  0  0  2  0  0  0  0  0  0
    3.9680   -4.0050    3.7270 C   0  0  0  0  0  2  0  0  0  0  0  0
    5.0150   -4.0960    4.8350 C   0  0  0  0  0  2  0  0  0  0  0  0
   10.5030   -2.2880    8.6290 C   0  0  0  0  0  0  0  0  0  0  0  0
   10.9730   -1.2470    8.0730 O   0  0  0  0  0  0  0  0  0  0  0  0
   11.0930   -2.9910    9.5100 O   0  0  0  0  0  1  0  0  0  0  0  0
    0.7510   -8.3320    9.2470 O   0  0  0  0  0  0  0  0  0  0  0  0
    0.4140   -9.0080    8.0300 C   0  0  0  0  0  2  0  0  0  0  0  0
   -2.7900   -7.2230    6.9810 C   0  0  0  0  0  0  0  0  0  0  0  0
   -2.4460   -6.7240    5.7240 C   0  0  0  0  0  3  0  0  0  0  0  0
   -1.1810   -6.9780    5.1890 C   0  0  0  0  0  3  0  0  0  0  0  0
   -0.2240   -7.7240    5.9010 C   0  0  0  0  0  0  0  0  0  0  0  0
   -0.5610   -8.2050    7.1870 C   0  0  0  0  0  0  0  0  0  0  0  0
   -1.8500   -7.9580    7.7090 C   0  0  0  0  0  3  0  0  0  0  0  0
    1.0820   -7.9730    5.2760 C   0  0  0  0  0  0  0  0  0  0  0  0
    2.1320   -7.0500    5.4150 C   0  0  0  0  0  3  0  0  0  0  0  0
    3.3710   -7.2820    4.8110 C   0  0  0  0  0  3  0  0  0  0  0  0
    3.5700   -8.4380    4.0600 C   0  0  0  0  0  0  0  0  0  0  0  0
    5.0960   -8.7240    3.3170 Cl  0  0  0  0  0  0  0  0  0  0  0  0
    2.5410   -9.3640    3.9060 C   0  0  0  0  0  3  0  0  0  0  0  0
    1.3020   -9.1280    4.5090 C   0  0  0  0  0  3  0  0  0  0  0  0
   -4.8030   -7.9250    8.4400 C   0  0  0  0  0  1  0  0  0  0  0  0
   -4.1530   -6.9310    7.5120 C   0  0  0  0  0  0  0  0  0  0  0  0
   -4.7120   -5.8790    7.2030 O   0  0  0  0  0  0  0  0  0  0  0  0
  1  2  1  0  0  0  0
  1 25  1  0  0  0  0
  3  2  2  0  0  0  0
  4  3  1  0  0  0  0
  5  4  2  0  0  0  0
  5  6  1  0  0  0  0
  6  1  2  0  0  0  0
  7  4  1  0  0  0  0
  7  8  2  0  0  0  0
  9 10  1  0  0  0  0
  9  8  1  0  0  0  0
 11 22  1  0  0  0  0
 11 10  2  0  0  0  0
 12 11  1  0  0  0  0
 13 12  2  0  0  0  0
 13 14  1  0  0  0  0
 14  9  2  0  0  0  0
 15 14  1  0  0  0  0
 15  7  1  0  0  0  0
 16 17  1  0  0  0  0
 16 15  1  0  0  0  0
 18 17  1  0  0  0  0
 19 18  1  0  0  0  0
 20 19  1  0  0  0  0
 20 21  1  0  0  0  0
 21 16  1  0  0  0  0
 22 24  1  0  0  0  0
 23 22  2  0  0  0  0
 26 25  1  0  0  0  0
 27 41  1  0  0  0  0
 27 32  1  0  0  0  0
 28 27  2  0  0  0  0
 29 28  1  0  0  0  0
 29 30  2  0  0  0  0
 30 31  1  0  0  0  0
 31 32  2  0  0  0  0
 31 26  1  0  0  0  0
 33 34  1  0  0  0  0
 33 30  1  0  0  0  0
 35 34  2  0  0  0  0
 36 35  1  0  0  0  0
 37 36  1  0  0  0  0
 38 36  2  0  0  0  0
 38 39  1  0  0  0  0
 39 33  2  0  0  0  0
 41 40  1  0  0  0  0
 42 41  2  0  0  0  0
M  END
>  <minimizedAffinity>
-8.00930691

$$$$
