
 OpenBabel09122223223D

 34 37  0  0  1  0  0  0  0  0999 V2000
   10.3080   -1.8200    0.2190 N   0  0  0  0  0  0  0  0  0  0  0  0
   10.2960   -3.1810    0.5280 C   0  0  0  0  0  0  0  0  0  0  0  0
   11.2620   -3.9400    0.4480 O   0  0  0  0  0  0  0  0  0  0  0  0
   11.0330   -1.3920   -0.9080 C   0  0  0  0  0  0  0  0  0  0  0  0
   11.2570   -0.1240   -1.1700 N   0  0  0  0  0  0  0  0  0  0  0  0
   11.9190    0.0220   -2.3950 C   0  0  0  0  0  0  0  0  0  0  0  0
   12.1650   -1.1750   -3.0430 C   0  0  0  0  0  3  0  0  0  0  0  0
   11.5450   -2.4810   -2.1300 S   0  0  0  0  0  0  0  0  0  0  0  0
    9.4700    1.7850    2.7390 C   0  0  1  0  0  3  0  0  0  0  0  0
    8.6540    1.4730    1.4620 C   0  0  0  0  0  2  0  0  0  0  0  0
    9.3530    0.5610    0.4560 C   0  0  0  0  0  2  0  0  0  0  0  0
    9.7880   -0.7530    1.1240 C   0  0  2  0  0  3  0  0  0  0  0  0
   10.7120   -0.4620    2.3140 C   0  0  0  0  0  2  0  0  0  0  0  0
   10.0530    0.4780    3.3280 C   0  0  0  0  0  2  0  0  0  0  0  0
   10.7820    3.3200    1.1830 C   0  0  0  0  0  1  0  0  0  0  0  0
   10.4830    2.9960    2.6700 C   0  0  0  0  0  0  0  0  0  0  0  0
   11.8330    2.6370    3.3280 C   0  0  0  0  0  1  0  0  0  0  0  0
    9.9720    4.2900    3.3200 C   0  0  0  0  0  1  0  0  0  0  0  0
    9.0260   -3.7960    0.9900 C   0  0  0  0  0  0  0  0  0  0  0  0
    8.4340   -3.3090    2.1650 C   0  0  0  0  0  3  0  0  0  0  0  0
    7.2570   -3.8830    2.6460 C   0  0  0  0  0  3  0  0  0  0  0  0
    6.6710   -4.9360    1.9450 C   0  0  0  0  0  0  0  0  0  0  0  0
    7.2810   -5.4630    0.8050 C   0  0  0  0  0  3  0  0  0  0  0  0
    8.4690   -4.8980    0.3320 C   0  0  0  0  0  3  0  0  0  0  0  0
    5.5240   -5.4990    2.4550 O   0  0  0  0  0  0  0  0  0  0  0  0
    5.0260   -6.5830    1.7680 C   0  0  0  0  0  0  0  0  0  0  0  0
    4.5150   -6.4920    0.4700 C   0  0  0  0  0  3  0  0  0  0  0  0
    3.9810   -7.6250   -0.1470 C   0  0  0  0  0  3  0  0  0  0  0  0
    3.9490   -8.8420    0.5340 C   0  0  0  0  0  3  0  0  0  0  0  0
    4.4410   -8.9260    1.8370 C   0  0  0  0  0  3  0  0  0  0  0  0
    4.9710   -7.7950    2.4570 C   0  0  0  0  0  3  0  0  0  0  0  0
   12.3260    1.3410   -2.9910 C   0  0  0  0  0  0  0  0  0  0  0  0
   12.7280    2.2330   -2.1750 O   0  0  0  0  0  1  0  0  0  0  0  0
   12.2470    1.4660   -4.2540 O   0  0  0  0  0  0  0  0  0  0  0  0
  1  2  1  0  0  0  0
  2 19  1  0  0  0  0
  3  2  2  0  0  0  0
  4  1  1  0  0  0  0
  5  4  2  0  0  0  0
  6  5  1  0  0  0  0
  7  6  2  0  0  0  0
  7  8  1  0  0  0  0
  8  4  1  0  0  0  0
  9 16  1  6  0  0  0
  9 14  1  0  0  0  0
 10  9  1  0  0  0  0
 11 12  1  0  0  0  0
 11 10  1  0  0  0  0
 12  1  1  6  0  0  0
 12 13  1  0  0  0  0
 13 14  1  0  0  0  0
 15 16  1  0  0  0  0
 16 18  1  0  0  0  0
 16 17  1  0  0  0  0
 19 20  1  0  0  0  0
 20 21  2  0  0  0  0
 22 25  1  0  0  0  0
 22 21  1  0  0  0  0
 23 22  2  0  0  0  0
 24 23  1  0  0  0  0
 24 19  2  0  0  0  0
 26 25  1  0  0  0  0
 26 31  1  0  0  0  0
 27 26  2  0  0  0  0
 28 27  1  0  0  0  0
 28 29  2  0  0  0  0
 29 30  1  0  0  0  0
 30 31  2  0  0  0  0
 32  6  1  0  0  0  0
 32 33  1  0  0  0  0
 34 32  2  0  0  0  0
M  END
>  <minimizedAffinity>
-0.841079235

$$$$

 OpenBabel09122223223D

 34 37  0  0  1  0  0  0  0  0999 V2000
    8.3350   -3.7990    1.0520 N   0  0  0  0  0  0  0  0  0  0  0  0
    8.3480   -3.0010    2.1960 C   0  0  0  0  0  0  0  0  0  0  0  0
    8.0130   -3.3640    3.3240 O   0  0  0  0  0  0  0  0  0  0  0  0
    7.2570   -4.6830    0.8590 C   0  0  0  0  0  0  0  0  0  0  0  0
    7.2490   -5.6000   -0.0810 N   0  0  0  0  0  0  0  0  0  0  0  0
    6.0220   -6.2740   -0.1080 C   0  0  0  0  0  0  0  0  0  0  0  0
    5.1140   -5.8190    0.8310 C   0  0  0  0  0  3  0  0  0  0  0  0
    5.7870   -4.5300    1.7290 S   0  0  0  0  0  0  0  0  0  0  0  0
   11.7240   -3.3970   -1.8470 C   0  0  1  0  0  3  0  0  0  0  0  0
   11.9600   -3.7410   -0.3570 C   0  0  0  0  0  2  0  0  0  0  0  0
   10.8270   -3.3390    0.5860 C   0  0  0  0  0  2  0  0  0  0  0  0
    9.4930   -3.9450    0.1210 C   0  0  2  0  0  3  0  0  0  0  0  0
    9.1790   -3.4980   -1.3130 C   0  0  0  0  0  2  0  0  0  0  0  0
   10.3110   -3.8560   -2.2800 C   0  0  0  0  0  2  0  0  0  0  0  0
   10.8420   -1.1330   -2.6170 C   0  0  0  0  0  1  0  0  0  0  0  0
   12.1290   -1.9460   -2.3250 C   0  0  0  0  0  0  0  0  0  0  0  0
   12.9330   -1.9940   -3.6430 C   0  0  0  0  0  1  0  0  0  0  0  0
   12.9480   -1.1450   -1.3030 C   0  0  0  0  0  1  0  0  0  0  0  0
    8.7950   -1.5900    2.0770 C   0  0  0  0  0  0  0  0  0  0  0  0
    9.1010   -0.8820    3.2490 C   0  0  0  0  0  3  0  0  0  0  0  0
    9.4950    0.4540    3.1770 C   0  0  0  0  0  3  0  0  0  0  0  0
    9.5900    1.0750    1.9320 C   0  0  0  0  0  0  0  0  0  0  0  0
    9.2360    0.3960    0.7650 C   0  0  0  0  0  3  0  0  0  0  0  0
    8.8270   -0.9390    0.8390 C   0  0  0  0  0  3  0  0  0  0  0  0
    9.9570    2.4010    1.8930 O   0  0  0  0  0  0  0  0  0  0  0  0
   10.8860    2.7430    0.9350 C   0  0  0  0  0  0  0  0  0  0  0  0
   10.8660    2.2250   -0.3620 C   0  0  0  0  0  3  0  0  0  0  0  0
   11.8700    2.5790   -1.2660 C   0  0  0  0  0  3  0  0  0  0  0  0
   12.8940    3.4410   -0.8720 C   0  0  0  0  0  3  0  0  0  0  0  0
   12.9220    3.9400    0.4310 C   0  0  0  0  0  3  0  0  0  0  0  0
   11.9230    3.5840    1.3370 C   0  0  0  0  0  3  0  0  0  0  0  0
    5.6820   -7.3840   -1.0640 C   0  0  0  0  0  0  0  0  0  0  0  0
    6.3460   -7.4220   -2.1500 O   0  0  0  0  0  0  0  0  0  0  0  0
    4.7700   -8.2000   -0.7180 O   0  0  0  0  0  1  0  0  0  0  0  0
  1  2  1  0  0  0  0
  2  3  2  0  0  0  0
  4  1  1  0  0  0  0
  4  8  1  0  0  0  0
  5  4  2  0  0  0  0
  6  5  1  0  0  0  0
  6  7  2  0  0  0  0
  7  8  1  0  0  0  0
  9 16  1  1  0  0  0
  9 10  1  0  0  0  0
 10 11  1  0  0  0  0
 12 11  1  0  0  0  0
 12  1  1  1  0  0  0
 13 12  1  0  0  0  0
 14  9  1  0  0  0  0
 14 13  1  0  0  0  0
 15 16  1  0  0  0  0
 16 18  1  0  0  0  0
 17 16  1  0  0  0  0
 19  2  1  0  0  0  0
 19 20  1  0  0  0  0
 21 20  2  0  0  0  0
 22 21  1  0  0  0  0
 23 24  1  0  0  0  0
 23 22  2  0  0  0  0
 24 19  2  0  0  0  0
 25 22  1  0  0  0  0
 26 31  1  0  0  0  0
 26 25  1  0  0  0  0
 27 26  2  0  0  0  0
 28 29  2  0  0  0  0
 28 27  1  0  0  0  0
 29 30  1  0  0  0  0
 30 31  2  0  0  0  0
 32 34  1  0  0  0  0
 32  6  1  0  0  0  0
 33 32  2  0  0  0  0
M  END
>  <minimizedAffinity>
0.761389911

$$$$

 OpenBabel09122223223D

 34 37  0  0  1  0  0  0  0  0999 V2000
    8.4040   -3.9630    1.0480 N   0  0  0  0  0  0  0  0  0  0  0  0
    8.3630   -3.2090    2.2210 C   0  0  0  0  0  0  0  0  0  0  0  0
    8.0170   -3.6260    3.3270 O   0  0  0  0  0  0  0  0  0  0  0  0
    7.3640   -4.8770    0.7980 C   0  0  0  0  0  0  0  0  0  0  0  0
    7.4110   -5.7580   -0.1760 N   0  0  0  0  0  0  0  0  0  0  0  0
    6.2110   -6.4740   -0.2570 C   0  0  0  0  0  0  0  0  0  0  0  0
    5.2670   -6.0880    0.6770 C   0  0  0  0  0  3  0  0  0  0  0  0
    5.8710   -4.8110    1.6380 S   0  0  0  0  0  0  0  0  0  0  0  0
   11.8140   -3.3360   -1.7850 C   0  0  1  0  0  3  0  0  0  0  0  0
   12.0440   -3.6630   -0.2910 C   0  0  0  0  0  2  0  0  0  0  0  0
   10.8680   -3.3380    0.6290 C   0  0  0  0  0  2  0  0  0  0  0  0
    9.5870   -4.0310    0.1400 C   0  0  2  0  0  3  0  0  0  0  0  0
    9.2720   -3.6070   -1.3010 C   0  0  0  0  0  2  0  0  0  0  0  0
   10.4440   -3.8890   -2.2460 C   0  0  0  0  0  2  0  0  0  0  0  0
   12.9480   -1.1430   -1.1540 C   0  0  0  0  0  1  0  0  0  0  0  0
   12.1310   -1.8620   -2.2590 C   0  0  0  0  0  0  0  0  0  0  0  0
   10.8350   -1.0450   -2.4560 C   0  0  0  0  0  1  0  0  0  0  0  0
   12.9470   -1.7720   -3.5550 C   0  0  0  0  0  1  0  0  0  0  0  0
    8.7590   -1.7790    2.1650 C   0  0  0  0  0  0  0  0  0  0  0  0
    8.5010   -1.0570    0.9900 C   0  0  0  0  0  3  0  0  0  0  0  0
    8.8880    0.2790    0.8900 C   0  0  0  0  0  3  0  0  0  0  0  0
    9.5220    0.8930    1.9700 C   0  0  0  0  0  0  0  0  0  0  0  0
    9.8310    0.1680    3.1220 C   0  0  0  0  0  3  0  0  0  0  0  0
    9.4580   -1.1760    3.2160 C   0  0  0  0  0  3  0  0  0  0  0  0
    9.9140    2.2040    1.8350 O   0  0  0  0  0  0  0  0  0  0  0  0
   10.8250    2.4630    0.8350 C   0  0  0  0  0  0  0  0  0  0  0  0
   10.7720    1.8510   -0.4200 C   0  0  0  0  0  3  0  0  0  0  0  0
   11.7590    2.1260   -1.3690 C   0  0  0  0  0  3  0  0  0  0  0  0
   12.8010    3.0010   -1.0600 C   0  0  0  0  0  3  0  0  0  0  0  0
   12.8630    3.5950    0.2010 C   0  0  0  0  0  3  0  0  0  0  0  0
   11.8800    3.3200    1.1510 C   0  0  0  0  0  3  0  0  0  0  0  0
    5.9330   -7.5580   -1.2610 C   0  0  0  0  0  0  0  0  0  0  0  0
    6.7200   -7.6220   -2.2610 O   0  0  0  0  0  0  0  0  0  0  0  0
    4.9480   -8.3300   -1.0370 O   0  0  0  0  0  1  0  0  0  0  0  0
  1  2  1  0  0  0  0
  2  3  2  0  0  0  0
  4  1  1  0  0  0  0
  4  8  1  0  0  0  0
  5  4  2  0  0  0  0
  6  5  1  0  0  0  0
  6  7  2  0  0  0  0
  7  8  1  0  0  0  0
  9 16  1  1  0  0  0
  9 10  1  0  0  0  0
 10 11  1  0  0  0  0
 12 11  1  0  0  0  0
 12  1  1  1  0  0  0
 13 12  1  0  0  0  0
 14  9  1  0  0  0  0
 14 13  1  0  0  0  0
 16 15  1  0  0  0  0
 17 16  1  0  0  0  0
 18 16  1  0  0  0  0
 19  2  1  0  0  0  0
 19 24  1  0  0  0  0
 20 19  2  0  0  0  0
 21 20  1  0  0  0  0
 21 22  2  0  0  0  0
 22 23  1  0  0  0  0
 23 24  2  0  0  0  0
 25 22  1  0  0  0  0
 26 31  1  0  0  0  0
 26 25  1  0  0  0  0
 27 26  2  0  0  0  0
 28 29  2  0  0  0  0
 28 27  1  0  0  0  0
 29 30  1  0  0  0  0
 30 31  2  0  0  0  0
 32 34  1  0  0  0  0
 32  6  1  0  0  0  0
 33 32  2  0  0  0  0
M  END
>  <minimizedAffinity>
1.06598639

$$$$
