
 OpenBabel09132204463D

 34 37  0  0  1  0  0  0  0  0999 V2000
   10.3080   -1.8200    0.2190 N   0  0  0  0  0  0  0  0  0  0  0  0
   10.2960   -3.1810    0.5280 C   0  0  0  0  0  0  0  0  0  0  0  0
   11.2620   -3.9400    0.4480 O   0  0  0  0  0  0  0  0  0  0  0  0
   11.0330   -1.3920   -0.9080 C   0  0  0  0  0  0  0  0  0  0  0  0
   11.2570   -0.1240   -1.1700 N   0  0  0  0  0  0  0  0  0  0  0  0
   11.9190    0.0220   -2.3950 C   0  0  0  0  0  0  0  0  0  0  0  0
   12.1650   -1.1750   -3.0430 C   0  0  0  0  0  3  0  0  0  0  0  0
   11.5450   -2.4810   -2.1300 S   0  0  0  0  0  0  0  0  0  0  0  0
    9.4700    1.7850    2.7390 C   0  0  1  0  0  3  0  0  0  0  0  0
    8.6540    1.4730    1.4620 C   0  0  0  0  0  2  0  0  0  0  0  0
    9.3530    0.5610    0.4560 C   0  0  0  0  0  2  0  0  0  0  0  0
    9.7880   -0.7530    1.1240 C   0  0  2  0  0  3  0  0  0  0  0  0
   10.7120   -0.4620    2.3140 C   0  0  0  0  0  2  0  0  0  0  0  0
   10.0530    0.4780    3.3280 C   0  0  0  0  0  2  0  0  0  0  0  0
   10.7820    3.3200    1.1830 C   0  0  0  0  0  1  0  0  0  0  0  0
   10.4830    2.9960    2.6700 C   0  0  0  0  0  0  0  0  0  0  0  0
   11.8330    2.6370    3.3280 C   0  0  0  0  0  1  0  0  0  0  0  0
    9.9720    4.2900    3.3200 C   0  0  0  0  0  1  0  0  0  0  0  0
    9.0260   -3.7960    0.9900 C   0  0  0  0  0  0  0  0  0  0  0  0
    8.4340   -3.3090    2.1650 C   0  0  0  0  0  3  0  0  0  0  0  0
    7.2570   -3.8830    2.6460 C   0  0  0  0  0  3  0  0  0  0  0  0
    6.6710   -4.9360    1.9450 C   0  0  0  0  0  0  0  0  0  0  0  0
    7.2810   -5.4630    0.8050 C   0  0  0  0  0  3  0  0  0  0  0  0
    8.4690   -4.8980    0.3320 C   0  0  0  0  0  3  0  0  0  0  0  0
    5.5240   -5.4990    2.4550 O   0  0  0  0  0  0  0  0  0  0  0  0
    5.0260   -6.5830    1.7680 C   0  0  0  0  0  0  0  0  0  0  0  0
    4.5150   -6.4920    0.4700 C   0  0  0  0  0  3  0  0  0  0  0  0
    3.9810   -7.6250   -0.1470 C   0  0  0  0  0  3  0  0  0  0  0  0
    3.9490   -8.8420    0.5340 C   0  0  0  0  0  3  0  0  0  0  0  0
    4.4410   -8.9260    1.8370 C   0  0  0  0  0  3  0  0  0  0  0  0
    4.9710   -7.7950    2.4570 C   0  0  0  0  0  3  0  0  0  0  0  0
   12.3260    1.3410   -2.9910 C   0  0  0  0  0  0  0  0  0  0  0  0
   12.7280    2.2330   -2.1750 O   0  0  0  0  0  1  0  0  0  0  0  0
   12.2470    1.4660   -4.2540 O   0  0  0  0  0  0  0  0  0  0  0  0
  1  2  1  0  0  0  0
  2 19  1  0  0  0  0
  3  2  2  0  0  0  0
  4  1  1  0  0  0  0
  5  4  2  0  0  0  0
  6  5  1  0  0  0  0
  7  6  2  0  0  0  0
  7  8  1  0  0  0  0
  8  4  1  0  0  0  0
  9 16  1  6  0  0  0
  9 14  1  0  0  0  0
 10  9  1  0  0  0  0
 11 12  1  0  0  0  0
 11 10  1  0  0  0  0
 12  1  1  6  0  0  0
 12 13  1  0  0  0  0
 13 14  1  0  0  0  0
 15 16  1  0  0  0  0
 16 18  1  0  0  0  0
 16 17  1  0  0  0  0
 19 20  1  0  0  0  0
 20 21  2  0  0  0  0
 22 25  1  0  0  0  0
 22 21  1  0  0  0  0
 23 22  2  0  0  0  0
 24 23  1  0  0  0  0
 24 19  2  0  0  0  0
 26 25  1  0  0  0  0
 26 31  1  0  0  0  0
 27 26  2  0  0  0  0
 28 27  1  0  0  0  0
 28 29  2  0  0  0  0
 29 30  1  0  0  0  0
 30 31  2  0  0  0  0
 32  6  1  0  0  0  0
 32 33  1  0  0  0  0
 34 32  2  0  0  0  0
M  END
>  <minimizedAffinity>
-0.841079235

$$$$
