
 OpenBabel09122219343D

 32 34  0  0  0  0  0  0  0  0999 V2000
    3.7280  -11.5850    0.7060 C   0  0  0  0  0  0  0  0  0  0  0  0
    3.2600  -10.3200    0.7400 C   0  0  0  0  0  2  0  0  0  0  0  0
    3.6040   -9.2810    1.7210 C   0  0  0  0  0  0  0  0  0  0  0  0
    4.6250   -8.3720    1.4330 C   0  0  0  0  0  3  0  0  0  0  0  0
    4.9520   -7.3650    2.3460 C   0  0  0  0  0  3  0  0  0  0  0  0
    4.2630   -7.2630    3.5580 C   0  0  0  0  0  0  0  0  0  0  0  0
    3.2180   -8.1470    3.8380 C   0  0  0  0  0  3  0  0  0  0  0  0
    2.8880   -9.1470    2.9170 C   0  0  0  0  0  3  0  0  0  0  0  0
    4.6580   -6.2330    4.3860 O   0  0  0  0  0  0  0  0  0  0  0  0
    3.8940   -5.0900    4.3700 C   0  0  0  0  0  0  0  0  0  0  0  0
    4.2950   -4.0590    3.5150 C   0  0  0  0  0  3  0  0  0  0  0  0
    3.5740   -2.8660    3.4760 C   0  0  0  0  0  3  0  0  0  0  0  0
    2.4650   -2.6940    4.3050 C   0  0  0  0  0  3  0  0  0  0  0  0
    2.0840   -3.7100    5.1840 C   0  0  0  0  0  3  0  0  0  0  0  0
    2.8030   -4.9080    5.2260 C   0  0  0  0  0  0  0  0  0  0  0  0
    2.2780   -6.2210    6.4890 Br  0  0  0  0  0  0  0  0  0  0  0  0
    4.6940  -12.8600    2.6430 C   0  0  0  0  0  0  0  0  0  0  0  0
    5.7730  -13.2000    3.1510 O   0  0  0  0  0  0  0  0  0  0  0  0
    4.7220  -12.0080    1.5770 N   0  0  0  0  0  4  0  0  0  0  0  0
    5.6520  -11.6590    1.3930 H   0  0  0  0  0  0  0  0  0  0  0  0
    3.3940  -13.2660    3.3020 C   0  0  0  0  0  2  0  0  0  0  0  0
    3.3690  -12.7900    4.7580 C   0  0  0  0  0  2  0  0  0  0  0  0
   -0.9370   -9.0480    5.9730 C   0  0  0  0  0  1  0  0  0  0  0  0
    0.1470  -10.0450    5.6980 C   0  0  0  0  0  0  0  0  0  0  0  0
    1.3210  -10.0520    6.4580 C   0  0  0  0  0  3  0  0  0  0  0  0
    2.3540  -10.9450    6.1590 C   0  0  0  0  0  3  0  0  0  0  0  0
    2.2370  -11.8410    5.0890 C   0  0  0  0  0  0  0  0  0  0  0  0
    1.0600  -11.8310    4.3310 C   0  0  0  0  0  3  0  0  0  0  0  0
    0.0310  -10.9330    4.6240 C   0  0  0  0  0  3  0  0  0  0  0  0
    3.1260  -12.4480   -0.4530 C   0  0  0  0  0  0  0  0  0  0  0  0
    3.9380  -13.2610   -0.9830 O   0  0  0  0  0  0  0  0  0  0  0  0
    1.9040  -12.2450   -0.7070 O   0  0  0  0  0  1  0  0  0  0  0  0
  1  2  1  0  0  0  0
  1 19  2  0  0  0  0
  2  3  1  0  0  0  0
  3  8  1  0  0  0  0
  4  3  2  0  0  0  0
  4  5  1  0  0  0  0
  5  6  2  0  0  0  0
  6  7  1  0  0  0  0
  6  9  1  0  0  0  0
  8  7  2  0  0  0  0
 10  9  1  0  0  0  0
 10 15  1  0  0  0  0
 11 10  2  0  0  0  0
 12 11  1  0  0  0  0
 12 13  2  0  0  0  0
 13 14  1  0  0  0  0
 14 15  2  0  0  0  0
 15 16  1  0  0  0  0
 17 18  2  0  0  0  0
 17 21  1  0  0  0  0
 19 17  1  0  0  0  0
 20 19  1  0  0  0  0
 21 22  1  0  0  0  0
 22 27  1  0  0  0  0
 24 23  1  0  0  0  0
 24 25  1  0  0  0  0
 26 25  2  0  0  0  0
 27 26  1  0  0  0  0
 28 29  1  0  0  0  0
 28 27  2  0  0  0  0
 29 24  2  0  0  0  0
 30  1  1  0  0  0  0
 31 30  2  0  0  0  0
 32 30  1  0  0  0  0
M  END
>  <minimizedAffinity>
-6.07575464

$$$$

 OpenBabel09122219343D

 32 34  0  0  0  0  0  0  0  0999 V2000
    2.7520   -3.7760    5.3300 C   0  0  0  0  0  0  0  0  0  0  0  0
    1.8160   -4.7390    5.4590 C   0  0  0  0  0  2  0  0  0  0  0  0
    2.0520   -6.1750    5.6530 C   0  0  0  0  0  0  0  0  0  0  0  0
    1.1640   -7.1010    5.1000 C   0  0  0  0  0  3  0  0  0  0  0  0
    1.3850   -8.4730    5.2570 C   0  0  0  0  0  3  0  0  0  0  0  0
    2.4930   -8.9290    5.9760 C   0  0  0  0  0  0  0  0  0  0  0  0
    3.4030   -8.0100    6.5040 C   0  0  0  0  0  3  0  0  0  0  0  0
    3.1840   -6.6390    6.3360 C   0  0  0  0  0  3  0  0  0  0  0  0
    2.6230  -10.2990    6.0700 O   0  0  0  0  0  0  0  0  0  0  0  0
    3.3180  -10.9310    5.0650 C   0  0  0  0  0  0  0  0  0  0  0  0
    4.7010  -10.7290    5.0130 C   0  0  0  0  0  3  0  0  0  0  0  0
    5.4540  -11.3230    4.0000 C   0  0  0  0  0  3  0  0  0  0  0  0
    4.8240  -12.1000    3.0270 C   0  0  0  0  0  3  0  0  0  0  0  0
    3.4390  -12.2750    3.0600 C   0  0  0  0  0  3  0  0  0  0  0  0
    2.6800  -11.6820    4.0730 C   0  0  0  0  0  0  0  0  0  0  0  0
    0.7970  -11.8980    4.0210 Br  0  0  0  0  0  0  0  0  0  0  0  0
    5.1550   -3.9980    4.6290 C   0  0  0  0  0  0  0  0  0  0  0  0
    6.2990   -4.1430    5.0840 O   0  0  0  0  0  0  0  0  0  0  0  0
    4.1010   -4.0580    5.4950 N   0  0  0  0  0  4  0  0  0  0  0  0
    4.3870   -4.3330    6.4240 H   0  0  0  0  0  0  0  0  0  0  0  0
    4.9490   -3.9170    3.1320 C   0  0  0  0  0  2  0  0  0  0  0  0
    5.7960   -4.9790    2.4230 C   0  0  0  0  0  2  0  0  0  0  0  0
    2.7340   -9.6750    0.8110 C   0  0  0  0  0  1  0  0  0  0  0  0
    3.5670   -8.5000    1.2240 C   0  0  0  0  0  0  0  0  0  0  0  0
    3.8090   -8.2360    2.5770 C   0  0  0  0  0  3  0  0  0  0  0  0
    4.5370   -7.1060    2.9600 C   0  0  0  0  0  3  0  0  0  0  0  0
    5.0280   -6.2120    1.9990 C   0  0  0  0  0  0  0  0  0  0  0  0
    4.7830   -6.4800    0.6470 C   0  0  0  0  0  3  0  0  0  0  0  0
    4.0490   -7.6050    0.2640 C   0  0  0  0  0  3  0  0  0  0  0  0
    2.1590   -2.3470    5.0960 C   0  0  0  0  0  0  0  0  0  0  0  0
    1.8960   -2.0750    3.8880 O   0  0  0  0  0  0  0  0  0  0  0  0
    1.9960   -1.6460    6.1360 O   0  0  0  0  0  1  0  0  0  0  0  0
  1  2  1  0  0  0  0
  1 19  2  0  0  0  0
  2  3  1  0  0  0  0
  3  8  1  0  0  0  0
  4  5  1  0  0  0  0
  4  3  2  0  0  0  0
  5  6  2  0  0  0  0
  6  9  1  0  0  0  0
  6  7  1  0  0  0  0
  8  7  2  0  0  0  0
 10  9  1  0  0  0  0
 11 10  1  0  0  0  0
 12 11  2  0  0  0  0
 13 14  2  0  0  0  0
 13 12  1  0  0  0  0
 14 15  1  0  0  0  0
 15 10  2  0  0  0  0
 16 15  1  0  0  0  0
 17 18  2  0  0  0  0
 17 19  1  0  0  0  0
 19 20  1  0  0  0  0
 21 17  1  0  0  0  0
 22 21  1  0  0  0  0
 23 24  1  0  0  0  0
 24 25  1  0  0  0  0
 25 26  2  0  0  0  0
 27 22  1  0  0  0  0
 27 26  1  0  0  0  0
 28 27  2  0  0  0  0
 29 28  1  0  0  0  0
 29 24  2  0  0  0  0
 30  1  1  0  0  0  0
 30 32  1  0  0  0  0
 31 30  2  0  0  0  0
M  END
>  <minimizedAffinity>
-6.00427914

$$$$

 OpenBabel09122219343D

 32 34  0  0  0  0  0  0  0  0999 V2000
    2.5730  -11.6380    0.2830 C   0  0  0  0  0  0  0  0  0  0  0  0
    2.2230  -12.3220    1.3920 C   0  0  0  0  0  2  0  0  0  0  0  0
    1.6770  -11.7620    2.6360 C   0  0  0  0  0  0  0  0  0  0  0  0
    0.3000  -11.5580    2.7550 C   0  0  0  0  0  3  0  0  0  0  0  0
   -0.2380  -11.0450    3.9380 C   0  0  0  0  0  3  0  0  0  0  0  0
    0.5990  -10.7250    5.0110 C   0  0  0  0  0  0  0  0  0  0  0  0
    1.9720  -10.9560    4.9110 C   0  0  0  0  0  3  0  0  0  0  0  0
    2.5060  -11.4790    3.7290 C   0  0  0  0  0  3  0  0  0  0  0  0
   -0.0310  -10.2290    6.1340 O   0  0  0  0  0  0  0  0  0  0  0  0
   -0.8810   -9.1630    5.9540 C   0  0  0  0  0  0  0  0  0  0  0  0
   -0.3040   -7.9100    5.7220 C   0  0  0  0  0  3  0  0  0  0  0  0
   -1.1160   -6.7880    5.5590 C   0  0  0  0  0  3  0  0  0  0  0  0
   -2.5030   -6.9120    5.6480 C   0  0  0  0  0  3  0  0  0  0  0  0
   -3.0780   -8.1570    5.9140 C   0  0  0  0  0  3  0  0  0  0  0  0
   -2.2690   -9.2840    6.0780 C   0  0  0  0  0  0  0  0  0  0  0  0
   -3.1060  -10.9310    6.5050 Br  0  0  0  0  0  0  0  0  0  0  0  0
    3.0700   -9.1860    0.5140 C   0  0  0  0  0  0  0  0  0  0  0  0
    2.6820   -8.0680    0.1440 O   0  0  0  0  0  0  0  0  0  0  0  0
    2.3250  -10.2770    0.1700 N   0  0  0  0  0  4  0  0  0  0  0  0
    1.4540  -10.0190   -0.2720 H   0  0  0  0  0  0  0  0  0  0  0  0
    4.2520   -9.2950    1.4540 C   0  0  0  0  0  2  0  0  0  0  0  0
    4.9290   -7.9300    1.6110 C   0  0  0  0  0  2  0  0  0  0  0  0
    2.5510   -4.5520    5.7290 C   0  0  0  0  0  1  0  0  0  0  0  0
    3.2100   -5.4180    4.6990 C   0  0  0  0  0  0  0  0  0  0  0  0
    3.8660   -4.8500    3.6020 C   0  0  0  0  0  3  0  0  0  0  0  0
    4.4280   -5.6630    2.6130 C   0  0  0  0  0  3  0  0  0  0  0  0
    4.3370   -7.0580    2.6970 C   0  0  0  0  0  0  0  0  0  0  0  0
    3.6800   -7.6230    3.7970 C   0  0  0  0  0  3  0  0  0  0  0  0
    3.1110   -6.8110    4.7810 C   0  0  0  0  0  3  0  0  0  0  0  0
    3.1590  -12.5380   -0.8540 C   0  0  0  0  0  0  0  0  0  0  0  0
    2.3280  -12.8690   -1.7490 O   0  0  0  0  0  0  0  0  0  0  0  0
    4.3910  -12.8110   -0.7550 O   0  0  0  0  0  1  0  0  0  0  0  0
  1  2  1  0  0  0  0
  2  3  1  0  0  0  0
  3  4  2  0  0  0  0
  3  8  1  0  0  0  0
  4  5  1  0  0  0  0
  5  6  2  0  0  0  0
  6  9  1  0  0  0  0
  7  6  1  0  0  0  0
  8  7  2  0  0  0  0
 10 15  1  0  0  0  0
 10  9  1  0  0  0  0
 11 10  2  0  0  0  0
 12 13  2  0  0  0  0
 12 11  1  0  0  0  0
 13 14  1  0  0  0  0
 14 15  2  0  0  0  0
 15 16  1  0  0  0  0
 17 21  1  0  0  0  0
 18 17  2  0  0  0  0
 19  1  2  0  0  0  0
 19 17  1  0  0  0  0
 20 19  1  0  0  0  0
 21 22  1  0  0  0  0
 22 27  1  0  0  0  0
 24 29  1  0  0  0  0
 24 23  1  0  0  0  0
 25 24  2  0  0  0  0
 26 27  2  0  0  0  0
 26 25  1  0  0  0  0
 27 28  1  0  0  0  0
 28 29  2  0  0  0  0
 30 32  1  0  0  0  0
 30  1  1  0  0  0  0
 31 30  2  0  0  0  0
M  END
>  <minimizedAffinity>
-5.80676556

$$$$

 OpenBabel09122219343D

 32 34  0  0  0  0  0  0  0  0999 V2000
   -2.3100   -7.9010    5.5600 C   0  0  0  0  0  0  0  0  0  0  0  0
   -1.3610   -7.0700    6.0380 C   0  0  0  0  0  2  0  0  0  0  0  0
    0.0620   -7.0580    5.6730 C   0  0  0  0  0  0  0  0  0  0  0  0
    0.6110   -5.9230    5.0720 C   0  0  0  0  0  3  0  0  0  0  0  0
    1.9670   -5.8870    4.7370 C   0  0  0  0  0  3  0  0  0  0  0  0
    2.7860   -6.9890    4.9950 C   0  0  0  0  0  0  0  0  0  0  0  0
    2.2520   -8.1160    5.6250 C   0  0  0  0  0  3  0  0  0  0  0  0
    0.8970   -8.1440    5.9680 C   0  0  0  0  0  3  0  0  0  0  0  0
    4.1090   -6.8510    4.6300 O   0  0  0  0  0  0  0  0  0  0  0  0
    4.3940   -6.8980    3.2850 C   0  0  0  0  0  0  0  0  0  0  0  0
    4.2200   -8.1220    2.6310 C   0  0  0  0  0  3  0  0  0  0  0  0
    4.5190   -8.2350    1.2740 C   0  0  0  0  0  3  0  0  0  0  0  0
    5.0120   -7.1330    0.5740 C   0  0  0  0  0  3  0  0  0  0  0  0
    5.2190   -5.9200    1.2350 C   0  0  0  0  0  3  0  0  0  0  0  0
    4.9210   -5.8010    2.5950 C   0  0  0  0  0  0  0  0  0  0  0  0
    5.2890   -4.1490    3.4500 Br  0  0  0  0  0  0  0  0  0  0  0  0
   -1.7710  -10.1340    4.5440 C   0  0  0  0  0  0  0  0  0  0  0  0
   -1.7260  -10.7320    3.4580 O   0  0  0  0  0  0  0  0  0  0  0  0
   -2.0340   -8.7950    4.5350 N   0  0  0  0  0  4  0  0  0  0  0  0
   -2.0530   -8.4170    3.5980 H   0  0  0  0  0  0  0  0  0  0  0  0
   -1.3870  -10.8610    5.8150 C   0  0  0  0  0  2  0  0  0  0  0  0
   -0.5620  -12.1080    5.4810 C   0  0  0  0  0  2  0  0  0  0  0  0
    5.1560  -11.0430    5.0280 C   0  0  0  0  0  1  0  0  0  0  0  0
    3.6980  -11.3710    5.1380 C   0  0  0  0  0  0  0  0  0  0  0  0
    2.8900  -11.4260    3.9970 C   0  0  0  0  0  3  0  0  0  0  0  0
    1.5190  -11.6750    4.1100 C   0  0  0  0  0  3  0  0  0  0  0  0
    0.9270  -11.8610    5.3660 C   0  0  0  0  0  0  0  0  0  0  0  0
    1.7390  -11.8050    6.5050 C   0  0  0  0  0  3  0  0  0  0  0  0
    3.1080  -11.5490    6.3930 C   0  0  0  0  0  3  0  0  0  0  0  0
   -3.7240   -7.6710    6.1900 C   0  0  0  0  0  0  0  0  0  0  0  0
   -4.3420   -8.7290    6.5050 O   0  0  0  0  0  1  0  0  0  0  0  0
   -4.0710   -6.4620    6.3270 O   0  0  0  0  0  0  0  0  0  0  0  0
  1  2  1  0  0  0  0
  1 30  1  0  0  0  0
  3  8  1  0  0  0  0
  3  2  1  0  0  0  0
  4  3  2  0  0  0  0
  5  6  2  0  0  0  0
  5  4  1  0  0  0  0
  6  7  1  0  0  0  0
  7  8  2  0  0  0  0
  9  6  1  0  0  0  0
 10  9  1  0  0  0  0
 11 10  1  0  0  0  0
 12 11  2  0  0  0  0
 13 14  2  0  0  0  0
 13 12  1  0  0  0  0
 14 15  1  0  0  0  0
 15 10  2  0  0  0  0
 15 16  1  0  0  0  0
 17 21  1  0  0  0  0
 18 17  2  0  0  0  0
 19 17  1  0  0  0  0
 19  1  2  0  0  0  0
 20 19  1  0  0  0  0
 22 21  1  0  0  0  0
 23 24  1  0  0  0  0
 24 29  1  0  0  0  0
 25 26  1  0  0  0  0
 25 24  2  0  0  0  0
 26 27  2  0  0  0  0
 27 22  1  0  0  0  0
 27 28  1  0  0  0  0
 29 28  2  0  0  0  0
 30 32  2  0  0  0  0
 30 31  1  0  0  0  0
M  END
>  <minimizedAffinity>
-5.68624353

$$$$

 OpenBabel09122219343D

 32 34  0  0  0  0  0  0  0  0999 V2000
    3.4520  -11.6460    0.9870 C   0  0  0  0  0  0  0  0  0  0  0  0
    3.4690  -10.3090    0.8050 C   0  0  0  0  0  2  0  0  0  0  0  0
    3.7230   -9.2850    1.8280 C   0  0  0  0  0  0  0  0  0  0  0  0
    4.9130   -8.5540    1.7910 C   0  0  0  0  0  3  0  0  0  0  0  0
    5.1620   -7.5630    2.7440 C   0  0  0  0  0  3  0  0  0  0  0  0
    4.2250   -7.2980    3.7460 C   0  0  0  0  0  0  0  0  0  0  0  0
    3.0190   -8.0020    3.7700 C   0  0  0  0  0  3  0  0  0  0  0  0
    2.7690   -8.9860    2.8090 C   0  0  0  0  0  3  0  0  0  0  0  0
    4.5640   -6.2980    4.6340 O   0  0  0  0  0  0  0  0  0  0  0  0
    3.8640   -5.1180    4.5430 C   0  0  0  0  0  0  0  0  0  0  0  0
    2.5510   -5.1090    5.0250 C   0  0  0  0  0  3  0  0  0  0  0  0
    1.7830   -3.9480    4.9340 C   0  0  0  0  0  3  0  0  0  0  0  0
    2.3190   -2.8030    4.3440 C   0  0  0  0  0  3  0  0  0  0  0  0
    3.6180   -2.8210    3.8320 C   0  0  0  0  0  3  0  0  0  0  0  0
    4.3910   -3.9820    3.9210 C   0  0  0  0  0  0  0  0  0  0  0  0
    6.1220   -3.9650    3.1450 Br  0  0  0  0  0  0  0  0  0  0  0  0
    3.0590  -12.6720    3.2470 C   0  0  0  0  0  0  0  0  0  0  0  0
    3.6330  -13.2920    4.1550 O   0  0  0  0  0  0  0  0  0  0  0  0
    3.8090  -12.2110    2.2040 N   0  0  0  0  0  4  0  0  0  0  0  0
    4.7990  -12.3420    2.3590 H   0  0  0  0  0  0  0  0  0  0  0  0
    1.5960  -12.3140    3.3930 C   0  0  0  0  0  2  0  0  0  0  0  0
    1.2770  -11.9790    4.8530 C   0  0  0  0  0  2  0  0  0  0  0  0
   -1.4550   -6.8730    5.5520 C   0  0  0  0  0  1  0  0  0  0  0  0
   -0.7880   -8.2070    5.4100 C   0  0  0  0  0  0  0  0  0  0  0  0
    0.2780   -8.5660    6.2420 C   0  0  0  0  0  3  0  0  0  0  0  0
    0.9350   -9.7870    6.0670 C   0  0  0  0  0  3  0  0  0  0  0  0
    0.5470  -10.6690    5.0500 C   0  0  0  0  0  0  0  0  0  0  0  0
   -0.5210  -10.3060    4.2200 C   0  0  0  0  0  3  0  0  0  0  0  0
   -1.1720   -9.0820    4.3890 C   0  0  0  0  0  3  0  0  0  0  0  0
    3.1090  -12.4540   -0.3080 C   0  0  0  0  0  0  0  0  0  0  0  0
    1.8730  -12.5420   -0.5640 O   0  0  0  0  0  1  0  0  0  0  0  0
    4.1010  -12.9030   -0.9510 O   0  0  0  0  0  0  0  0  0  0  0  0
  1 19  2  0  0  0  0
  2  1  1  0  0  0  0
  2  3  1  0  0  0  0
  3  8  1  0  0  0  0
  4  3  2  0  0  0  0
  4  5  1  0  0  0  0
  5  6  2  0  0  0  0
  6  7  1  0  0  0  0
  6  9  1  0  0  0  0
  8  7  2  0  0  0  0
 10  9  1  0  0  0  0
 10 11  1  0  0  0  0
 12 11  2  0  0  0  0
 13 12  1  0  0  0  0
 14 15  1  0  0  0  0
 14 13  2  0  0  0  0
 15 10  2  0  0  0  0
 16 15  1  0  0  0  0
 17 21  1  0  0  0  0
 17 18  2  0  0  0  0
 19 20  1  0  0  0  0
 19 17  1  0  0  0  0
 21 22  1  0  0  0  0
 22 27  1  0  0  0  0
 24 23  1  0  0  0  0
 24 25  1  0  0  0  0
 26 25  2  0  0  0  0
 27 26  1  0  0  0  0
 28 29  1  0  0  0  0
 28 27  2  0  0  0  0
 29 24  2  0  0  0  0
 30  1  1  0  0  0  0
 31 30  1  0  0  0  0
 32 30  2  0  0  0  0
M  END
>  <minimizedAffinity>
-5.50237179

$$$$

 OpenBabel09122219343D

 32 34  0  0  0  0  0  0  0  0999 V2000
    4.7690   -5.7580    3.6580 C   0  0  0  0  0  0  0  0  0  0  0  0
    4.8340   -6.5360    2.5570 C   0  0  0  0  0  2  0  0  0  0  0  0
    4.6860   -7.9960    2.5030 C   0  0  0  0  0  0  0  0  0  0  0  0
    3.6570   -8.5580    1.7430 C   0  0  0  0  0  3  0  0  0  0  0  0
    3.5140   -9.9460    1.6640 C   0  0  0  0  0  3  0  0  0  0  0  0
    4.3960  -10.7840    2.3500 C   0  0  0  0  0  0  0  0  0  0  0  0
    5.4480  -10.2320    3.0850 C   0  0  0  0  0  3  0  0  0  0  0  0
    5.5930   -8.8430    3.1530 C   0  0  0  0  0  3  0  0  0  0  0  0
    4.1720  -12.1380    2.2030 O   0  0  0  0  0  0  0  0  0  0  0  0
    3.5400  -12.5450    1.0510 C   0  0  0  0  0  0  0  0  0  0  0  0
    4.3230  -12.6830   -0.0990 C   0  0  0  0  0  3  0  0  0  0  0  0
    3.7310  -13.0670   -1.3020 C   0  0  0  0  0  3  0  0  0  0  0  0
    2.3560  -13.2920   -1.3620 C   0  0  0  0  0  3  0  0  0  0  0  0
    1.5680  -13.1210   -0.2220 C   0  0  0  0  0  3  0  0  0  0  0  0
    2.1560  -12.7370    0.9860 C   0  0  0  0  0  0  0  0  0  0  0  0
    1.0240  -12.4540    2.4810 Br  0  0  0  0  0  0  0  0  0  0  0  0
    3.2130   -6.6240    5.4300 C   0  0  0  0  0  0  0  0  0  0  0  0
    3.1980   -7.2430    6.5040 O   0  0  0  0  0  0  0  0  0  0  0  0
    4.4220   -6.2870    4.8930 N   0  0  0  0  0  4  0  0  0  0  0  0
    5.1880   -6.4970    5.5180 H   0  0  0  0  0  0  0  0  0  0  0  0
    1.9130   -6.1320    4.8320 C   0  0  0  0  0  2  0  0  0  0  0  0
    0.7480   -6.4290    5.7820 C   0  0  0  0  0  2  0  0  0  0  0  0
   -3.0640  -10.4050    3.8630 C   0  0  0  0  0  1  0  0  0  0  0  0
   -2.0830   -9.3620    4.3040 C   0  0  0  0  0  0  0  0  0  0  0  0
   -0.7060   -9.5980    4.2250 C   0  0  0  0  0  3  0  0  0  0  0  0
    0.2040   -8.6460    4.6920 C   0  0  0  0  0  3  0  0  0  0  0  0
   -0.2440   -7.4450    5.2580 C   0  0  0  0  0  0  0  0  0  0  0  0
   -1.6220   -7.2130    5.3350 C   0  0  0  0  0  3  0  0  0  0  0  0
   -2.5330   -8.1680    4.8750 C   0  0  0  0  0  3  0  0  0  0  0  0
    5.0100   -4.2390    3.3710 C   0  0  0  0  0  0  0  0  0  0  0  0
    3.9580   -3.5670    3.1600 O   0  0  0  0  0  0  0  0  0  0  0  0
    6.2170   -3.8610    3.4020 O   0  0  0  0  0  1  0  0  0  0  0  0
  1 19  2  0  0  0  0
  2  1  1  0  0  0  0
  3  2  1  0  0  0  0
  3  8  1  0  0  0  0
  4  3  2  0  0  0  0
  5  4  1  0  0  0  0
  5  6  2  0  0  0  0
  6  7  1  0  0  0  0
  7  8  2  0  0  0  0
  9  6  1  0  0  0  0
 10  9  1  0  0  0  0
 11 10  2  0  0  0  0
 12 11  1  0  0  0  0
 13 12  2  0  0  0  0
 13 14  1  0  0  0  0
 14 15  2  0  0  0  0
 15 10  1  0  0  0  0
 15 16  1  0  0  0  0
 17 18  2  0  0  0  0
 19 17  1  0  0  0  0
 19 20  1  0  0  0  0
 21 17  1  0  0  0  0
 21 22  1  0  0  0  0
 23 24  1  0  0  0  0
 24 29  1  0  0  0  0
 25 24  2  0  0  0  0
 25 26  1  0  0  0  0
 26 27  2  0  0  0  0
 27 28  1  0  0  0  0
 27 22  1  0  0  0  0
 29 28  2  0  0  0  0
 30 32  1  0  0  0  0
 30  1  1  0  0  0  0
 31 30  2  0  0  0  0
M  END
>  <minimizedAffinity>
-5.3412075

$$$$

 OpenBabel09122219343D

 32 34  0  0  0  0  0  0  0  0999 V2000
   -2.0150  -10.3030    4.8910 C   0  0  0  0  0  0  0  0  0  0  0  0
   -1.7620   -9.3050    5.7630 C   0  0  0  0  0  2  0  0  0  0  0  0
   -0.5610   -8.4610    5.8090 C   0  0  0  0  0  0  0  0  0  0  0  0
   -0.6050   -7.1680    5.2820 C   0  0  0  0  0  3  0  0  0  0  0  0
    0.5230   -6.3450    5.3360 C   0  0  0  0  0  3  0  0  0  0  0  0
    1.7080   -6.8100    5.9120 C   0  0  0  0  0  0  0  0  0  0  0  0
    1.7500   -8.0900    6.4710 C   0  0  0  0  0  3  0  0  0  0  0  0
    0.6160   -8.9070    6.4240 C   0  0  0  0  0  3  0  0  0  0  0  0
    2.7610   -5.9190    5.9200 O   0  0  0  0  0  0  0  0  0  0  0  0
    3.3270   -5.6110    4.7040 C   0  0  0  0  0  0  0  0  0  0  0  0
    3.8120   -6.6720    3.9320 C   0  0  0  0  0  3  0  0  0  0  0  0
    4.4200   -6.4170    2.7030 C   0  0  0  0  0  3  0  0  0  0  0  0
    4.5630   -5.1040    2.2540 C   0  0  0  0  0  3  0  0  0  0  0  0
    4.1090   -4.0420    3.0410 C   0  0  0  0  0  3  0  0  0  0  0  0
    3.4990   -4.2920    4.2730 C   0  0  0  0  0  0  0  0  0  0  0  0
    2.9670   -2.8060    5.3240 Br  0  0  0  0  0  0  0  0  0  0  0  0
   -0.1300  -11.4400    3.6790 C   0  0  0  0  0  0  0  0  0  0  0  0
    0.3620  -11.5870    2.5500 O   0  0  0  0  0  0  0  0  0  0  0  0
   -1.1640  -10.5600    3.8250 N   0  0  0  0  0  4  0  0  0  0  0  0
   -1.3380  -10.0340    2.9800 H   0  0  0  0  0  0  0  0  0  0  0  0
    0.5180  -12.1080    4.8720 C   0  0  0  0  0  2  0  0  0  0  0  0
    1.7780  -12.8630    4.4340 C   0  0  0  0  0  2  0  0  0  0  0  0
    6.2780   -9.3730    3.1710 C   0  0  0  0  0  1  0  0  0  0  0  0
    5.1580  -10.3070    3.5160 C   0  0  0  0  0  0  0  0  0  0  0  0
    4.7300  -11.2780    2.6040 C   0  0  0  0  0  3  0  0  0  0  0  0
    3.6470  -12.1070    2.9070 C   0  0  0  0  0  3  0  0  0  0  0  0
    2.9630  -11.9760    4.1230 C   0  0  0  0  0  0  0  0  0  0  0  0
    3.3950  -11.0030    5.0330 C   0  0  0  0  0  3  0  0  0  0  0  0
    4.4730  -10.1690    4.7270 C   0  0  0  0  0  3  0  0  0  0  0  0
   -3.3770  -11.0310    5.1440 C   0  0  0  0  0  0  0  0  0  0  0  0
   -3.7560  -11.7880    4.2030 O   0  0  0  0  0  0  0  0  0  0  0  0
   -3.9250  -10.7930    6.2590 O   0  0  0  0  0  1  0  0  0  0  0  0
  1 30  1  0  0  0  0
  1  2  1  0  0  0  0
  2  3  1  0  0  0  0
  3  8  1  0  0  0  0
  4  5  1  0  0  0  0
  4  3  2  0  0  0  0
  5  6  2  0  0  0  0
  6  9  1  0  0  0  0
  6  7  1  0  0  0  0
  8  7  2  0  0  0  0
 10  9  1  0  0  0  0
 11 10  2  0  0  0  0
 12 11  1  0  0  0  0
 13 12  2  0  0  0  0
 13 14  1  0  0  0  0
 14 15  2  0  0  0  0
 15 10  1  0  0  0  0
 15 16  1  0  0  0  0
 17 19  1  0  0  0  0
 17 21  1  0  0  0  0
 18 17  2  0  0  0  0
 19  1  2  3  0  0  0
 20 19  1  0  0  0  0
 22 21  1  0  0  0  0
 23 24  1  0  0  0  0
 24 29  1  0  0  0  0
 25 26  1  0  0  0  0
 25 24  2  0  0  0  0
 26 27  2  0  0  0  0
 27 22  1  0  0  0  0
 27 28  1  0  0  0  0
 29 28  2  0  0  0  0
 30 32  1  0  0  0  0
 31 30  2  0  0  0  0
M  END
>  <minimizedAffinity>
-5.31189108

$$$$

 OpenBabel09122219343D

 32 34  0  0  0  0  0  0  0  0999 V2000
    4.7450   -7.9790    0.6290 C   0  0  0  0  0  0  0  0  0  0  0  0
    3.4680   -8.3690    0.4360 C   0  0  0  0  0  2  0  0  0  0  0  0
    2.7340   -9.3880    1.1980 C   0  0  0  0  0  0  0  0  0  0  0  0
    2.1700   -9.0540    2.4320 C   0  0  0  0  0  3  0  0  0  0  0  0
    1.4520  -10.0060    3.1610 C   0  0  0  0  0  3  0  0  0  0  0  0
    1.2970  -11.3030    2.6640 C   0  0  0  0  0  0  0  0  0  0  0  0
    1.8290  -11.6350    1.4170 C   0  0  0  0  0  3  0  0  0  0  0  0
    2.5390  -10.6770    0.6860 C   0  0  0  0  0  3  0  0  0  0  0  0
    0.5680  -12.1640    3.4580 O   0  0  0  0  0  0  0  0  0  0  0  0
   -0.3500  -11.6000    4.3130 C   0  0  0  0  0  0  0  0  0  0  0  0
   -1.5020  -11.0440    3.7460 C   0  0  0  0  0  3  0  0  0  0  0  0
   -2.4550  -10.4350    4.5620 C   0  0  0  0  0  3  0  0  0  0  0  0
   -2.2490  -10.3610    5.9400 C   0  0  0  0  0  3  0  0  0  0  0  0
   -1.0830  -10.8860    6.5020 C   0  0  0  0  0  3  0  0  0  0  0  0
   -0.1250  -11.4980    5.6890 C   0  0  0  0  0  0  0  0  0  0  0  0
    1.4670  -12.1280    6.5030 Br  0  0  0  0  0  0  0  0  0  0  0  0
    5.3290   -8.3050    3.0510 C   0  0  0  0  0  0  0  0  0  0  0  0
    6.0450   -8.9810    3.8040 O   0  0  0  0  0  0  0  0  0  0  0  0
    5.4860   -8.4520    1.7030 N   0  0  0  0  0  4  0  0  0  0  0  0
    6.2760   -9.0400    1.4740 H   0  0  0  0  0  0  0  0  0  0  0  0
    4.4260   -7.2390    3.6340 C   0  0  0  0  0  2  0  0  0  0  0  0
    5.0560   -5.8550    3.4520 C   0  0  0  0  0  2  0  0  0  0  0  0
    2.4340   -1.5040    6.3200 C   0  0  0  0  0  1  0  0  0  0  0  0
    3.0950   -2.6560    5.6260 C   0  0  0  0  0  0  0  0  0  0  0  0
    4.4420   -2.9520    5.8560 C   0  0  0  0  0  3  0  0  0  0  0  0
    5.0690   -3.9910    5.1620 C   0  0  0  0  0  3  0  0  0  0  0  0
    4.3640   -4.7460    4.2160 C   0  0  0  0  0  0  0  0  0  0  0  0
    3.0160   -4.4470    3.9880 C   0  0  0  0  0  3  0  0  0  0  0  0
    2.3910   -3.4040    4.6770 C   0  0  0  0  0  3  0  0  0  0  0  0
    5.2340   -6.8950   -0.3870 C   0  0  0  0  0  0  0  0  0  0  0  0
    4.9210   -5.7070   -0.0840 O   0  0  0  0  0  1  0  0  0  0  0  0
    5.8950   -7.3290   -1.3740 O   0  0  0  0  0  0  0  0  0  0  0  0
  1 19  2  0  0  0  0
  2  1  1  0  0  0  0
  2  3  1  0  0  0  0
  3  4  1  0  0  0  0
  4  5  2  0  0  0  0
  6  5  1  0  0  0  0
  6  9  1  0  0  0  0
  7  6  2  0  0  0  0
  8  3  2  0  0  0  0
  8  7  1  0  0  0  0
  9 10  1  0  0  0  0
 10 15  1  0  0  0  0
 11 10  2  0  0  0  0
 11 12  1  0  0  0  0
 12 13  2  0  0  0  0
 13 14  1  0  0  0  0
 15 14  2  0  0  0  0
 15 16  1  0  0  0  0
 17 21  1  0  0  0  0
 17 18  2  0  0  0  0
 19 17  1  0  0  0  0
 20 19  1  0  0  0  0
 22 21  1  0  0  0  0
 22 27  1  0  0  0  0
 24 25  1  0  0  0  0
 24 23  1  0  0  0  0
 26 25  2  0  0  0  0
 27 26  1  0  0  0  0
 28 27  2  0  0  0  0
 28 29  1  0  0  0  0
 29 24  2  0  0  0  0
 30 31  1  0  0  0  0
 30  1  1  0  0  0  0
 32 30  2  0  0  0  0
M  END
>  <minimizedAffinity>
-5.07254744

$$$$

 OpenBabel09122219343D

 32 34  0  0  0  0  0  0  0  0999 V2000
   -1.7010  -11.2070    4.6110 C   0  0  0  0  0  0  0  0  0  0  0  0
   -0.3830  -11.4990    4.5970 C   0  0  0  0  0  2  0  0  0  0  0  0
    0.6150  -11.0100    3.6370 C   0  0  0  0  0  0  0  0  0  0  0  0
    1.0690  -11.8560    2.6220 C   0  0  0  0  0  3  0  0  0  0  0  0
    2.0040  -11.4010    1.6880 C   0  0  0  0  0  3  0  0  0  0  0  0
    2.4980  -10.0960    1.7650 C   0  0  0  0  0  0  0  0  0  0  0  0
    2.0250   -9.2340    2.7570 C   0  0  0  0  0  3  0  0  0  0  0  0
    1.0820   -9.6900    3.6840 C   0  0  0  0  0  3  0  0  0  0  0  0
    3.4130   -9.7440    0.7940 O   0  0  0  0  0  0  0  0  0  0  0  0
    4.1510   -8.6050    1.0170 C   0  0  0  0  0  0  0  0  0  0  0  0
    3.9480   -7.5260    0.1500 C   0  0  0  0  0  3  0  0  0  0  0  0
    4.6880   -6.3550    0.3100 C   0  0  0  0  0  3  0  0  0  0  0  0
    5.6460   -6.2680    1.3210 C   0  0  0  0  0  3  0  0  0  0  0  0
    5.8730   -7.3580    2.1650 C   0  0  0  0  0  3  0  0  0  0  0  0
    5.1340   -8.5330    2.0090 C   0  0  0  0  0  0  0  0  0  0  0  0
    5.5380  -10.0000    3.1410 Br  0  0  0  0  0  0  0  0  0  0  0  0
   -2.6570   -8.9850    3.9310 C   0  0  0  0  0  0  0  0  0  0  0  0
   -2.9430   -8.3050    2.9340 O   0  0  0  0  0  0  0  0  0  0  0  0
   -2.2390  -10.2710    3.7400 N   0  0  0  0  0  4  0  0  0  0  0  0
   -2.3210  -10.5580    2.7740 H   0  0  0  0  0  0  0  0  0  0  0  0
   -2.9240   -8.4340    5.3150 C   0  0  0  0  0  2  0  0  0  0  0  0
   -2.3140   -7.0360    5.4540 C   0  0  0  0  0  2  0  0  0  0  0  0
    3.4970   -7.0610    5.9610 C   0  0  0  0  0  1  0  0  0  0  0  0
    2.0020   -7.0250    5.8770 C   0  0  0  0  0  0  0  0  0  0  0  0
    1.2270   -8.0080    6.5020 C   0  0  0  0  0  3  0  0  0  0  0  0
   -0.1650   -8.0030    6.3720 C   0  0  0  0  0  3  0  0  0  0  0  0
   -0.8080   -7.0210    5.6070 C   0  0  0  0  0  0  0  0  0  0  0  0
   -0.0290   -6.0390    4.9840 C   0  0  0  0  0  3  0  0  0  0  0  0
    1.3620   -6.0480    5.1070 C   0  0  0  0  0  3  0  0  0  0  0  0
   -2.4940  -11.9290    5.7500 C   0  0  0  0  0  0  0  0  0  0  0  0
   -1.7930  -12.6840    6.4860 O   0  0  0  0  0  1  0  0  0  0  0  0
   -3.7280  -11.6600    5.8130 O   0  0  0  0  0  0  0  0  0  0  0  0
  1 30  1  0  0  0  0
  2  1  1  0  0  0  0
  3  8  1  0  0  0  0
  3  2  1  0  0  0  0
  4  3  2  0  0  0  0
  5  6  2  0  0  0  0
  5  4  1  0  0  0  0
  6  7  1  0  0  0  0
  7  8  2  0  0  0  0
  9 10  1  0  0  0  0
  9  6  1  0  0  0  0
 10 15  1  0  0  0  0
 11 12  1  0  0  0  0
 11 10  2  0  0  0  0
 12 13  2  0  0  0  0
 13 14  1  0  0  0  0
 15 14  2  0  0  0  0
 15 16  1  0  0  0  0
 17 21  1  0  0  0  0
 18 17  2  0  0  0  0
 19 17  1  0  0  0  0
 19  1  2  0  0  0  0
 20 19  1  0  0  0  0
 21 22  1  0  0  0  0
 22 27  1  0  0  0  0
 24 23  1  0  0  0  0
 24 25  1  0  0  0  0
 26 25  2  0  0  0  0
 27 26  1  0  0  0  0
 28 29  1  0  0  0  0
 28 27  2  0  0  0  0
 29 24  2  0  0  0  0
 30 32  2  0  0  0  0
 30 31  1  0  0  0  0
M  END
>  <minimizedAffinity>
-5.02095127

$$$$

 OpenBabel09122219343D

 32 34  0  0  0  0  0  0  0  0999 V2000
   -1.8550   -7.4130    5.9350 C   0  0  0  0  0  0  0  0  0  0  0  0
   -1.0330   -6.3980    5.5960 C   0  0  0  0  0  2  0  0  0  0  0  0
    0.4030   -6.4920    5.3000 C   0  0  0  0  0  0  0  0  0  0  0  0
    0.9990   -7.7480    5.1670 C   0  0  0  0  0  3  0  0  0  0  0  0
    2.3600   -7.8550    4.8660 C   0  0  0  0  0  3  0  0  0  0  0  0
    3.1370   -6.7060    4.7010 C   0  0  0  0  0  0  0  0  0  0  0  0
    2.5410   -5.4460    4.8000 C   0  0  0  0  0  3  0  0  0  0  0  0
    1.1780   -5.3430    5.0920 C   0  0  0  0  0  3  0  0  0  0  0  0
    4.4670   -6.9200    4.4020 O   0  0  0  0  0  0  0  0  0  0  0  0
    4.8190   -6.8960    3.0720 C   0  0  0  0  0  0  0  0  0  0  0  0
    4.7010   -5.6770    2.3960 C   0  0  0  0  0  3  0  0  0  0  0  0
    5.0180   -5.5990    1.0400 C   0  0  0  0  0  3  0  0  0  0  0  0
    5.4330   -6.7410    0.3540 C   0  0  0  0  0  3  0  0  0  0  0  0
    5.5180   -7.9650    1.0210 C   0  0  0  0  0  3  0  0  0  0  0  0
    5.2020   -8.0490    2.3790 C   0  0  0  0  0  0  0  0  0  0  0  0
    5.2710   -9.7520    3.2100 Br  0  0  0  0  0  0  0  0  0  0  0  0
   -1.6270   -9.7470    5.0350 C   0  0  0  0  0  0  0  0  0  0  0  0
   -0.9720  -10.7910    5.1720 O   0  0  0  0  0  0  0  0  0  0  0  0
   -1.4170   -8.7300    5.9200 N   0  0  0  0  0  4  0  0  0  0  0  0
   -0.8050   -9.0030    6.6760 H   0  0  0  0  0  0  0  0  0  0  0  0
   -2.7340   -9.6880    4.0040 C   0  0  0  0  0  2  0  0  0  0  0  0
   -3.2000  -11.1030    3.6480 C   0  0  0  0  0  2  0  0  0  0  0  0
   -7.9460  -12.9370    6.5010 C   0  0  0  0  0  1  0  0  0  0  0  0
   -6.7590  -12.4280    5.7420 C   0  0  0  0  0  0  0  0  0  0  0  0
   -6.4330  -12.9540    4.4880 C   0  0  0  0  0  3  0  0  0  0  0  0
   -5.2910  -12.5180    3.8100 C   0  0  0  0  0  3  0  0  0  0  0  0
   -4.4470  -11.5550    4.3780 C   0  0  0  0  0  0  0  0  0  0  0  0
   -4.7770  -11.0310    5.6340 C   0  0  0  0  0  3  0  0  0  0  0  0
   -5.9140  -11.4720    6.3150 C   0  0  0  0  0  3  0  0  0  0  0  0
   -3.3260   -6.9620    6.2240 C   0  0  0  0  0  0  0  0  0  0  0  0
   -4.1320   -7.9080    6.4620 O   0  0  0  0  0  1  0  0  0  0  0  0
   -3.5290   -5.7140    6.2040 O   0  0  0  0  0  0  0  0  0  0  0  0
  1 30  1  0  0  0  0
  2  1  1  0  0  0  0
  3  2  1  0  0  0  0
  4  3  1  0  0  0  0
  5  4  2  0  0  0  0
  6  7  2  0  0  0  0
  6  5  1  0  0  0  0
  7  8  1  0  0  0  0
  8  3  2  0  0  0  0
  9  6  1  0  0  0  0
 10  9  1  0  0  0  0
 11 10  1  0  0  0  0
 12 11  2  0  0  0  0
 13 14  2  0  0  0  0
 13 12  1  0  0  0  0
 14 15  1  0  0  0  0
 15 10  2  0  0  0  0
 15 16  1  0  0  0  0
 17 18  2  0  0  0  0
 17 19  1  0  0  0  0
 19  1  2  0  0  0  0
 19 20  1  0  0  0  0
 21 17  1  0  0  0  0
 22 21  1  0  0  0  0
 22 27  1  0  0  0  0
 24 29  1  0  0  0  0
 24 23  1  0  0  0  0
 25 24  2  0  0  0  0
 26 27  2  0  0  0  0
 26 25  1  0  0  0  0
 27 28  1  0  0  0  0
 28 29  2  0  0  0  0
 30 31  1  0  0  0  0
 32 30  2  0  0  0  0
M  END
>  <minimizedAffinity>
-5.01794529

$$$$
