
 OpenBabel09122222393D

 32 34  0  0  0  0  0  0  0  0999 V2000
    3.4520  -11.6460    0.9870 C   0  0  0  0  0  0  0  0  0  0  0  0
    3.4690  -10.3090    0.8050 C   0  0  0  0  0  2  0  0  0  0  0  0
    3.7230   -9.2850    1.8280 C   0  0  0  0  0  0  0  0  0  0  0  0
    4.9130   -8.5540    1.7910 C   0  0  0  0  0  3  0  0  0  0  0  0
    5.1620   -7.5630    2.7440 C   0  0  0  0  0  3  0  0  0  0  0  0
    4.2250   -7.2980    3.7460 C   0  0  0  0  0  0  0  0  0  0  0  0
    3.0190   -8.0020    3.7700 C   0  0  0  0  0  3  0  0  0  0  0  0
    2.7690   -8.9860    2.8090 C   0  0  0  0  0  3  0  0  0  0  0  0
    4.5640   -6.2980    4.6340 O   0  0  0  0  0  0  0  0  0  0  0  0
    3.8640   -5.1180    4.5430 C   0  0  0  0  0  0  0  0  0  0  0  0
    2.5510   -5.1090    5.0250 C   0  0  0  0  0  3  0  0  0  0  0  0
    1.7830   -3.9480    4.9340 C   0  0  0  0  0  3  0  0  0  0  0  0
    2.3190   -2.8030    4.3440 C   0  0  0  0  0  3  0  0  0  0  0  0
    3.6180   -2.8210    3.8320 C   0  0  0  0  0  3  0  0  0  0  0  0
    4.3910   -3.9820    3.9210 C   0  0  0  0  0  0  0  0  0  0  0  0
    6.1220   -3.9650    3.1450 Br  0  0  0  0  0  0  0  0  0  0  0  0
    3.0590  -12.6720    3.2470 C   0  0  0  0  0  0  0  0  0  0  0  0
    3.6330  -13.2920    4.1550 O   0  0  0  0  0  0  0  0  0  0  0  0
    3.8090  -12.2110    2.2040 N   0  0  0  0  0  4  0  0  0  0  0  0
    4.7990  -12.3420    2.3590 H   0  0  0  0  0  0  0  0  0  0  0  0
    1.5960  -12.3140    3.3930 C   0  0  0  0  0  2  0  0  0  0  0  0
    1.2770  -11.9790    4.8530 C   0  0  0  0  0  2  0  0  0  0  0  0
   -1.4550   -6.8730    5.5520 C   0  0  0  0  0  1  0  0  0  0  0  0
   -0.7880   -8.2070    5.4100 C   0  0  0  0  0  0  0  0  0  0  0  0
    0.2780   -8.5660    6.2420 C   0  0  0  0  0  3  0  0  0  0  0  0
    0.9350   -9.7870    6.0670 C   0  0  0  0  0  3  0  0  0  0  0  0
    0.5470  -10.6690    5.0500 C   0  0  0  0  0  0  0  0  0  0  0  0
   -0.5210  -10.3060    4.2200 C   0  0  0  0  0  3  0  0  0  0  0  0
   -1.1720   -9.0820    4.3890 C   0  0  0  0  0  3  0  0  0  0  0  0
    3.1090  -12.4540   -0.3080 C   0  0  0  0  0  0  0  0  0  0  0  0
    1.8730  -12.5420   -0.5640 O   0  0  0  0  0  1  0  0  0  0  0  0
    4.1010  -12.9030   -0.9510 O   0  0  0  0  0  0  0  0  0  0  0  0
  1 19  2  0  0  0  0
  2  1  1  0  0  0  0
  2  3  1  0  0  0  0
  3  8  1  0  0  0  0
  4  3  2  0  0  0  0
  4  5  1  0  0  0  0
  5  6  2  0  0  0  0
  6  7  1  0  0  0  0
  6  9  1  0  0  0  0
  8  7  2  0  0  0  0
 10  9  1  0  0  0  0
 10 11  1  0  0  0  0
 12 11  2  0  0  0  0
 13 12  1  0  0  0  0
 14 15  1  0  0  0  0
 14 13  2  0  0  0  0
 15 10  2  0  0  0  0
 16 15  1  0  0  0  0
 17 21  1  0  0  0  0
 17 18  2  0  0  0  0
 19 20  1  0  0  0  0
 19 17  1  0  0  0  0
 21 22  1  0  0  0  0
 22 27  1  0  0  0  0
 24 23  1  0  0  0  0
 24 25  1  0  0  0  0
 26 25  2  0  0  0  0
 27 26  1  0  0  0  0
 28 29  1  0  0  0  0
 28 27  2  0  0  0  0
 29 24  2  0  0  0  0
 30  1  1  0  0  0  0
 31 30  1  0  0  0  0
 32 30  2  0  0  0  0
M  END
>  <minimizedAffinity>
-5.50237179

$$$$
