
 OpenBabel09122222393D

 32 34  0  0  0  0  0  0  0  0999 V2000
   -1.7010  -11.2070    4.6110 C   0  0  0  0  0  0  0  0  0  0  0  0
   -0.3830  -11.4990    4.5970 C   0  0  0  0  0  2  0  0  0  0  0  0
    0.6150  -11.0100    3.6370 C   0  0  0  0  0  0  0  0  0  0  0  0
    1.0690  -11.8560    2.6220 C   0  0  0  0  0  3  0  0  0  0  0  0
    2.0040  -11.4010    1.6880 C   0  0  0  0  0  3  0  0  0  0  0  0
    2.4980  -10.0960    1.7650 C   0  0  0  0  0  0  0  0  0  0  0  0
    2.0250   -9.2340    2.7570 C   0  0  0  0  0  3  0  0  0  0  0  0
    1.0820   -9.6900    3.6840 C   0  0  0  0  0  3  0  0  0  0  0  0
    3.4130   -9.7440    0.7940 O   0  0  0  0  0  0  0  0  0  0  0  0
    4.1510   -8.6050    1.0170 C   0  0  0  0  0  0  0  0  0  0  0  0
    3.9480   -7.5260    0.1500 C   0  0  0  0  0  3  0  0  0  0  0  0
    4.6880   -6.3550    0.3100 C   0  0  0  0  0  3  0  0  0  0  0  0
    5.6460   -6.2680    1.3210 C   0  0  0  0  0  3  0  0  0  0  0  0
    5.8730   -7.3580    2.1650 C   0  0  0  0  0  3  0  0  0  0  0  0
    5.1340   -8.5330    2.0090 C   0  0  0  0  0  0  0  0  0  0  0  0
    5.5380  -10.0000    3.1410 Br  0  0  0  0  0  0  0  0  0  0  0  0
   -2.6570   -8.9850    3.9310 C   0  0  0  0  0  0  0  0  0  0  0  0
   -2.9430   -8.3050    2.9340 O   0  0  0  0  0  0  0  0  0  0  0  0
   -2.2390  -10.2710    3.7400 N   0  0  0  0  0  4  0  0  0  0  0  0
   -2.3210  -10.5580    2.7740 H   0  0  0  0  0  0  0  0  0  0  0  0
   -2.9240   -8.4340    5.3150 C   0  0  0  0  0  2  0  0  0  0  0  0
   -2.3140   -7.0360    5.4540 C   0  0  0  0  0  2  0  0  0  0  0  0
    3.4970   -7.0610    5.9610 C   0  0  0  0  0  1  0  0  0  0  0  0
    2.0020   -7.0250    5.8770 C   0  0  0  0  0  0  0  0  0  0  0  0
    1.2270   -8.0080    6.5020 C   0  0  0  0  0  3  0  0  0  0  0  0
   -0.1650   -8.0030    6.3720 C   0  0  0  0  0  3  0  0  0  0  0  0
   -0.8080   -7.0210    5.6070 C   0  0  0  0  0  0  0  0  0  0  0  0
   -0.0290   -6.0390    4.9840 C   0  0  0  0  0  3  0  0  0  0  0  0
    1.3620   -6.0480    5.1070 C   0  0  0  0  0  3  0  0  0  0  0  0
   -2.4940  -11.9290    5.7500 C   0  0  0  0  0  0  0  0  0  0  0  0
   -1.7930  -12.6840    6.4860 O   0  0  0  0  0  1  0  0  0  0  0  0
   -3.7280  -11.6600    5.8130 O   0  0  0  0  0  0  0  0  0  0  0  0
  1 30  1  0  0  0  0
  2  1  1  0  0  0  0
  3  8  1  0  0  0  0
  3  2  1  0  0  0  0
  4  3  2  0  0  0  0
  5  6  2  0  0  0  0
  5  4  1  0  0  0  0
  6  7  1  0  0  0  0
  7  8  2  0  0  0  0
  9 10  1  0  0  0  0
  9  6  1  0  0  0  0
 10 15  1  0  0  0  0
 11 12  1  0  0  0  0
 11 10  2  0  0  0  0
 12 13  2  0  0  0  0
 13 14  1  0  0  0  0
 15 14  2  0  0  0  0
 15 16  1  0  0  0  0
 17 21  1  0  0  0  0
 18 17  2  0  0  0  0
 19 17  1  0  0  0  0
 19  1  2  0  0  0  0
 20 19  1  0  0  0  0
 21 22  1  0  0  0  0
 22 27  1  0  0  0  0
 24 23  1  0  0  0  0
 24 25  1  0  0  0  0
 26 25  2  0  0  0  0
 27 26  1  0  0  0  0
 28 29  1  0  0  0  0
 28 27  2  0  0  0  0
 29 24  2  0  0  0  0
 30 32  2  0  0  0  0
 30 31  1  0  0  0  0
M  END
>  <minimizedAffinity>
-5.02095127

$$$$
