
 OpenBabel09122222393D

 32 34  0  0  0  0  0  0  0  0999 V2000
   -2.0150  -10.3030    4.8910 C   0  0  0  0  0  0  0  0  0  0  0  0
   -1.7620   -9.3050    5.7630 C   0  0  0  0  0  2  0  0  0  0  0  0
   -0.5610   -8.4610    5.8090 C   0  0  0  0  0  0  0  0  0  0  0  0
   -0.6050   -7.1680    5.2820 C   0  0  0  0  0  3  0  0  0  0  0  0
    0.5230   -6.3450    5.3360 C   0  0  0  0  0  3  0  0  0  0  0  0
    1.7080   -6.8100    5.9120 C   0  0  0  0  0  0  0  0  0  0  0  0
    1.7500   -8.0900    6.4710 C   0  0  0  0  0  3  0  0  0  0  0  0
    0.6160   -8.9070    6.4240 C   0  0  0  0  0  3  0  0  0  0  0  0
    2.7610   -5.9190    5.9200 O   0  0  0  0  0  0  0  0  0  0  0  0
    3.3270   -5.6110    4.7040 C   0  0  0  0  0  0  0  0  0  0  0  0
    3.8120   -6.6720    3.9320 C   0  0  0  0  0  3  0  0  0  0  0  0
    4.4200   -6.4170    2.7030 C   0  0  0  0  0  3  0  0  0  0  0  0
    4.5630   -5.1040    2.2540 C   0  0  0  0  0  3  0  0  0  0  0  0
    4.1090   -4.0420    3.0410 C   0  0  0  0  0  3  0  0  0  0  0  0
    3.4990   -4.2920    4.2730 C   0  0  0  0  0  0  0  0  0  0  0  0
    2.9670   -2.8060    5.3240 Br  0  0  0  0  0  0  0  0  0  0  0  0
   -0.1300  -11.4400    3.6790 C   0  0  0  0  0  0  0  0  0  0  0  0
    0.3620  -11.5870    2.5500 O   0  0  0  0  0  0  0  0  0  0  0  0
   -1.1640  -10.5600    3.8250 N   0  0  0  0  0  4  0  0  0  0  0  0
   -1.3380  -10.0340    2.9800 H   0  0  0  0  0  0  0  0  0  0  0  0
    0.5180  -12.1080    4.8720 C   0  0  0  0  0  2  0  0  0  0  0  0
    1.7780  -12.8630    4.4340 C   0  0  0  0  0  2  0  0  0  0  0  0
    6.2780   -9.3730    3.1710 C   0  0  0  0  0  1  0  0  0  0  0  0
    5.1580  -10.3070    3.5160 C   0  0  0  0  0  0  0  0  0  0  0  0
    4.7300  -11.2780    2.6040 C   0  0  0  0  0  3  0  0  0  0  0  0
    3.6470  -12.1070    2.9070 C   0  0  0  0  0  3  0  0  0  0  0  0
    2.9630  -11.9760    4.1230 C   0  0  0  0  0  0  0  0  0  0  0  0
    3.3950  -11.0030    5.0330 C   0  0  0  0  0  3  0  0  0  0  0  0
    4.4730  -10.1690    4.7270 C   0  0  0  0  0  3  0  0  0  0  0  0
   -3.3770  -11.0310    5.1440 C   0  0  0  0  0  0  0  0  0  0  0  0
   -3.7560  -11.7880    4.2030 O   0  0  0  0  0  0  0  0  0  0  0  0
   -3.9250  -10.7930    6.2590 O   0  0  0  0  0  1  0  0  0  0  0  0
  1 30  1  0  0  0  0
  1  2  1  0  0  0  0
  2  3  1  0  0  0  0
  3  8  1  0  0  0  0
  4  5  1  0  0  0  0
  4  3  2  0  0  0  0
  5  6  2  0  0  0  0
  6  9  1  0  0  0  0
  6  7  1  0  0  0  0
  8  7  2  0  0  0  0
 10  9  1  0  0  0  0
 11 10  2  0  0  0  0
 12 11  1  0  0  0  0
 13 12  2  0  0  0  0
 13 14  1  0  0  0  0
 14 15  2  0  0  0  0
 15 10  1  0  0  0  0
 15 16  1  0  0  0  0
 17 19  1  0  0  0  0
 17 21  1  0  0  0  0
 18 17  2  0  0  0  0
 19  1  2  3  0  0  0
 20 19  1  0  0  0  0
 22 21  1  0  0  0  0
 23 24  1  0  0  0  0
 24 29  1  0  0  0  0
 25 26  1  0  0  0  0
 25 24  2  0  0  0  0
 26 27  2  0  0  0  0
 27 22  1  0  0  0  0
 27 28  1  0  0  0  0
 29 28  2  0  0  0  0
 30 32  1  0  0  0  0
 31 30  2  0  0  0  0
M  END
>  <minimizedAffinity>
-5.31189108

$$$$
