
 OpenBabel09122222393D

 32 34  0  0  0  0  0  0  0  0999 V2000
   -1.8550   -7.4130    5.9350 C   0  0  0  0  0  0  0  0  0  0  0  0
   -1.0330   -6.3980    5.5960 C   0  0  0  0  0  2  0  0  0  0  0  0
    0.4030   -6.4920    5.3000 C   0  0  0  0  0  0  0  0  0  0  0  0
    0.9990   -7.7480    5.1670 C   0  0  0  0  0  3  0  0  0  0  0  0
    2.3600   -7.8550    4.8660 C   0  0  0  0  0  3  0  0  0  0  0  0
    3.1370   -6.7060    4.7010 C   0  0  0  0  0  0  0  0  0  0  0  0
    2.5410   -5.4460    4.8000 C   0  0  0  0  0  3  0  0  0  0  0  0
    1.1780   -5.3430    5.0920 C   0  0  0  0  0  3  0  0  0  0  0  0
    4.4670   -6.9200    4.4020 O   0  0  0  0  0  0  0  0  0  0  0  0
    4.8190   -6.8960    3.0720 C   0  0  0  0  0  0  0  0  0  0  0  0
    4.7010   -5.6770    2.3960 C   0  0  0  0  0  3  0  0  0  0  0  0
    5.0180   -5.5990    1.0400 C   0  0  0  0  0  3  0  0  0  0  0  0
    5.4330   -6.7410    0.3540 C   0  0  0  0  0  3  0  0  0  0  0  0
    5.5180   -7.9650    1.0210 C   0  0  0  0  0  3  0  0  0  0  0  0
    5.2020   -8.0490    2.3790 C   0  0  0  0  0  0  0  0  0  0  0  0
    5.2710   -9.7520    3.2100 Br  0  0  0  0  0  0  0  0  0  0  0  0
   -1.6270   -9.7470    5.0350 C   0  0  0  0  0  0  0  0  0  0  0  0
   -0.9720  -10.7910    5.1720 O   0  0  0  0  0  0  0  0  0  0  0  0
   -1.4170   -8.7300    5.9200 N   0  0  0  0  0  4  0  0  0  0  0  0
   -0.8050   -9.0030    6.6760 H   0  0  0  0  0  0  0  0  0  0  0  0
   -2.7340   -9.6880    4.0040 C   0  0  0  0  0  2  0  0  0  0  0  0
   -3.2000  -11.1030    3.6480 C   0  0  0  0  0  2  0  0  0  0  0  0
   -7.9460  -12.9370    6.5010 C   0  0  0  0  0  1  0  0  0  0  0  0
   -6.7590  -12.4280    5.7420 C   0  0  0  0  0  0  0  0  0  0  0  0
   -6.4330  -12.9540    4.4880 C   0  0  0  0  0  3  0  0  0  0  0  0
   -5.2910  -12.5180    3.8100 C   0  0  0  0  0  3  0  0  0  0  0  0
   -4.4470  -11.5550    4.3780 C   0  0  0  0  0  0  0  0  0  0  0  0
   -4.7770  -11.0310    5.6340 C   0  0  0  0  0  3  0  0  0  0  0  0
   -5.9140  -11.4720    6.3150 C   0  0  0  0  0  3  0  0  0  0  0  0
   -3.3260   -6.9620    6.2240 C   0  0  0  0  0  0  0  0  0  0  0  0
   -4.1320   -7.9080    6.4620 O   0  0  0  0  0  1  0  0  0  0  0  0
   -3.5290   -5.7140    6.2040 O   0  0  0  0  0  0  0  0  0  0  0  0
  1 30  1  0  0  0  0
  2  1  1  0  0  0  0
  3  2  1  0  0  0  0
  4  3  1  0  0  0  0
  5  4  2  0  0  0  0
  6  7  2  0  0  0  0
  6  5  1  0  0  0  0
  7  8  1  0  0  0  0
  8  3  2  0  0  0  0
  9  6  1  0  0  0  0
 10  9  1  0  0  0  0
 11 10  1  0  0  0  0
 12 11  2  0  0  0  0
 13 14  2  0  0  0  0
 13 12  1  0  0  0  0
 14 15  1  0  0  0  0
 15 10  2  0  0  0  0
 15 16  1  0  0  0  0
 17 18  2  0  0  0  0
 17 19  1  0  0  0  0
 19  1  2  0  0  0  0
 19 20  1  0  0  0  0
 21 17  1  0  0  0  0
 22 21  1  0  0  0  0
 22 27  1  0  0  0  0
 24 29  1  0  0  0  0
 24 23  1  0  0  0  0
 25 24  2  0  0  0  0
 26 27  2  0  0  0  0
 26 25  1  0  0  0  0
 27 28  1  0  0  0  0
 28 29  2  0  0  0  0
 30 31  1  0  0  0  0
 32 30  2  0  0  0  0
M  END
>  <minimizedAffinity>
-5.01794529

$$$$
