
 OpenBabel08272217153D

 17 18  0  0  1  0  0  0  0  0999 V2000
   33.5710   -8.6990    9.3460 C   0  0  0  0  0  0  0  0  0  0  0  0
   34.1460   -8.6800   10.6210 C   0  0  0  0  0  3  0  0  0  0  0  0
   35.5150   -8.8780   10.7760 C   0  0  0  0  0  3  0  0  0  0  0  0
   36.3230   -9.0950    9.6590 C   0  0  0  0  0  3  0  0  0  0  0  0
   35.7870   -9.1190    8.3570 C   0  0  0  0  0  0  0  0  0  0  0  0
   34.4020   -8.9130    8.2280 C   0  0  0  0  0  3  0  0  0  0  0  0
   31.3310  -10.4510    8.0640 O   0  0  0  0  0  0  0  0  0  0  0  0
   31.4700   -9.2300    7.9940 C   0  0  0  0  0  0  0  0  0  0  0  0
   31.1250   -8.5400    6.8460 N   0  0  0  0  0  0  0  0  0  0  0  0
   31.0200   -7.2570    6.8920 C   0  0  0  0  0  3  0  0  0  0  0  0
   31.2490   -6.3910    8.0600 C   0  0  0  0  0  3  0  0  0  0  0  0
   31.7690   -6.9770    9.1400 C   0  0  0  0  0  3  0  0  0  0  0  0
   32.0770   -8.4520    9.1870 C   0  0  2  0  0  3  0  0  0  0  0  0
   36.7080   -9.3660    7.1490 C   0  0  0  0  0  0  0  0  0  0  0  0
   37.2870  -10.7960    7.2250 C   0  0  0  0  0  1  0  0  0  0  0  0
   35.9020   -9.2140    5.8400 C   0  0  0  0  0  1  0  0  0  0  0  0
   37.9050   -8.3920    7.0620 C   0  0  0  0  0  1  0  0  0  0  0  0
  1  2  1  0  0  0  0
  2  3  2  0  0  0  0
  4  3  1  0  0  0  0
  5  4  2  0  0  0  0
  6  5  1  0  0  0  0
  6  1  2  0  0  0  0
  8  7  2  0  0  0  0
  8 13  1  0  0  0  0
  9 10  2  0  0  0  0
  9  8  1  0  0  0  0
 10 11  1  0  0  0  0
 11 12  2  0  0  0  0
 12 13  1  0  0  0  0
 13  1  1  6  0  0  0
 14 15  1  0  0  0  0
 14  5  1  0  0  0  0
 16 14  1  0  0  0  0
 17 14  1  0  0  0  0
M  END
>  <minimizedAffinity>
-6.76866913

$$$$
