
 OpenBabel08272217153D

 17 18  0  0  1  0  0  0  0  0999 V2000
  -10.1520    9.1540   10.9650 C   0  0  0  0  0  0  0  0  0  0  0  0
  -10.4290    9.8830    9.8030 C   0  0  0  0  0  3  0  0  0  0  0  0
   -9.4970   10.7860    9.3030 C   0  0  0  0  0  3  0  0  0  0  0  0
   -8.2760   10.9680    9.9550 C   0  0  0  0  0  3  0  0  0  0  0  0
   -7.9540   10.2540   11.1250 C   0  0  0  0  0  0  0  0  0  0  0  0
   -8.9120    9.3450   11.6080 C   0  0  0  0  0  3  0  0  0  0  0  0
  -10.6960    6.1890   10.1620 O   0  0  0  0  0  0  0  0  0  0  0  0
  -11.5190    7.0610   10.4420 C   0  0  0  0  0  0  0  0  0  0  0  0
  -12.7470    7.1090    9.8070 N   0  0  0  0  0  0  0  0  0  0  0  0
  -13.6810    7.8460   10.3020 C   0  0  0  0  0  3  0  0  0  0  0  0
  -13.5980    8.6960   11.5010 C   0  0  0  0  0  3  0  0  0  0  0  0
  -12.3860    8.8400   12.0420 C   0  0  0  0  0  3  0  0  0  0  0  0
  -11.1680    8.1480   11.4870 C   0  0  2  0  0  3  0  0  0  0  0  0
   -6.6010   10.4840   11.8210 C   0  0  0  0  0  0  0  0  0  0  0  0
   -5.7440    9.2030   11.7220 C   0  0  0  0  0  1  0  0  0  0  0  0
   -5.8530   11.6480   11.1340 C   0  0  0  0  0  1  0  0  0  0  0  0
   -6.7190   10.8400   13.3200 C   0  0  0  0  0  1  0  0  0  0  0  0
  1  6  1  0  0  0  0
  2  1  2  0  0  0  0
  3  2  1  0  0  0  0
  3  4  2  0  0  0  0
  4  5  1  0  0  0  0
  5  6  2  0  0  0  0
  5 14  1  0  0  0  0
  7  8  2  0  0  0  0
  8 13  1  0  0  0  0
  9 10  2  0  0  0  0
  9  8  1  0  0  0  0
 10 11  1  0  0  0  0
 11 12  2  0  0  0  0
 13  1  1  6  0  0  0
 13 12  1  0  0  0  0
 14 17  1  0  0  0  0
 15 14  1  0  0  0  0
 16 14  1  0  0  0  0
M  END
>  <minimizedAffinity>
-7.19037533

$$$$
