
 OpenBabel08272217153D

 17 18  0  0  1  0  0  0  0  0999 V2000
   35.4100   -8.9250    9.9940 C   0  0  0  0  0  0  0  0  0  0  0  0
   35.3380   -8.7150   11.3760 C   0  0  0  0  0  3  0  0  0  0  0  0
   34.2620   -8.0250   11.9250 C   0  0  0  0  0  3  0  0  0  0  0  0
   33.2460   -7.5380   11.1000 C   0  0  0  0  0  3  0  0  0  0  0  0
   33.2770   -7.7290    9.7050 C   0  0  0  0  0  0  0  0  0  0  0  0
   34.3730   -8.4330    9.1760 C   0  0  0  0  0  3  0  0  0  0  0  0
   38.4630   -8.8280   10.6250 O   0  0  0  0  0  0  0  0  0  0  0  0
   37.9210   -8.9480    9.5270 C   0  0  0  0  0  0  0  0  0  0  0  0
   38.4760   -8.3810    8.3940 N   0  0  0  0  0  0  0  0  0  0  0  0
   38.0490   -8.7470    7.2350 C   0  0  0  0  0  3  0  0  0  0  0  0
   36.9830   -9.7210    6.9500 C   0  0  0  0  0  3  0  0  0  0  0  0
   36.2810  -10.1560    7.9990 C   0  0  0  0  0  3  0  0  0  0  0  0
   36.5770   -9.7070    9.4080 C   0  0  2  0  0  3  0  0  0  0  0  0
   32.1410   -7.1740    8.8260 C   0  0  0  0  0  0  0  0  0  0  0  0
   32.1560   -7.8840    7.4550 C   0  0  0  0  0  1  0  0  0  0  0  0
   30.7810   -7.4240    9.5130 C   0  0  0  0  0  1  0  0  0  0  0  0
   32.2420   -5.6560    8.5560 C   0  0  0  0  0  1  0  0  0  0  0  0
  1  2  1  0  0  0  0
  2  3  2  0  0  0  0
  4  3  1  0  0  0  0
  5  4  2  0  0  0  0
  6  5  1  0  0  0  0
  6  1  2  0  0  0  0
  8  7  2  0  0  0  0
  9  8  1  0  0  0  0
 10  9  2  0  0  0  0
 11 10  1  0  0  0  0
 11 12  2  0  0  0  0
 12 13  1  0  0  0  0
 13  8  1  0  0  0  0
 13  1  1  6  0  0  0
 14 16  1  0  0  0  0
 14  5  1  0  0  0  0
 15 14  1  0  0  0  0
 17 14  1  0  0  0  0
M  END
>  <minimizedAffinity>
-7.3381505

$$$$
