
 OpenBabel08272217153D

 17 18  0  0  1  0  0  0  0  0999 V2000
   33.7020   -8.6700    9.6200 C   0  0  0  0  0  0  0  0  0  0  0  0
   33.1620   -8.5270    8.3360 C   0  0  0  0  0  3  0  0  0  0  0  0
   33.9730   -8.6720    7.2150 C   0  0  0  0  0  3  0  0  0  0  0  0
   35.3300   -8.9640    7.3630 C   0  0  0  0  0  3  0  0  0  0  0  0
   35.9140   -9.1180    8.6340 C   0  0  0  0  0  0  0  0  0  0  0  0
   35.0730   -8.9700    9.7520 C   0  0  0  0  0  3  0  0  0  0  0  0
   32.3940   -6.1620   10.9360 O   0  0  0  0  0  0  0  0  0  0  0  0
   32.8910   -7.1390   11.4970 C   0  0  0  0  0  0  0  0  0  0  0  0
   33.5680   -7.0020   12.6950 N   0  0  0  0  0  0  0  0  0  0  0  0
   33.8340   -8.0550   13.3890 C   0  0  0  0  0  3  0  0  0  0  0  0
   33.5120   -9.4490   13.0450 C   0  0  0  0  0  3  0  0  0  0  0  0
   33.0340   -9.6600   11.8160 C   0  0  0  0  0  3  0  0  0  0  0  0
   32.8000   -8.5370   10.8380 C   0  0  2  0  0  3  0  0  0  0  0  0
   37.4160   -9.4340    8.7600 C   0  0  0  0  0  0  0  0  0  0  0  0
   37.6400  -10.9520    8.5840 C   0  0  0  0  0  1  0  0  0  0  0  0
   38.2010   -8.6750    7.6680 C   0  0  0  0  0  1  0  0  0  0  0  0
   38.0290   -9.0370   10.1210 C   0  0  0  0  0  1  0  0  0  0  0  0
  1  6  1  0  0  0  0
  2  1  2  0  0  0  0
  3  4  2  0  0  0  0
  3  2  1  0  0  0  0
  4  5  1  0  0  0  0
  5 14  1  0  0  0  0
  5  6  2  0  0  0  0
  7  8  2  0  0  0  0
  8  9  1  0  0  0  0
  9 10  2  0  0  0  0
 11 10  1  0  0  0  0
 12 11  2  0  0  0  0
 13  1  1  6  0  0  0
 13  8  1  0  0  0  0
 13 12  1  0  0  0  0
 14 17  1  0  0  0  0
 15 14  1  0  0  0  0
 16 14  1  0  0  0  0
M  END
>  <minimizedAffinity>
-6.81984472

$$$$
