
 OpenBabel08272217153D

 17 18  0  0  1  0  0  0  0  0999 V2000
   -8.1450    9.6940    9.1360 C   0  0  0  0  0  0  0  0  0  0  0  0
   -8.8430    8.9010   10.0550 C   0  0  0  0  0  3  0  0  0  0  0  0
   -9.8910    8.0930    9.6300 C   0  0  0  0  0  3  0  0  0  0  0  0
  -10.2530    8.0640    8.2820 C   0  0  0  0  0  3  0  0  0  0  0  0
   -9.5770    8.8420    7.3230 C   0  0  0  0  0  0  0  0  0  0  0  0
   -8.5180    9.6490    7.7780 C   0  0  0  0  0  3  0  0  0  0  0  0
   -5.1870    9.8510    8.1590 O   0  0  0  0  0  0  0  0  0  0  0  0
   -5.6060    9.9040    9.3150 C   0  0  0  0  0  0  0  0  0  0  0  0
   -4.8820    9.3580   10.3590 N   0  0  0  0  0  0  0  0  0  0  0  0
   -5.1980    9.6630   11.5700 C   0  0  0  0  0  3  0  0  0  0  0  0
   -6.2940   10.5450   12.0040 C   0  0  0  0  0  3  0  0  0  0  0  0
   -7.1440   10.9460   11.0550 C   0  0  0  0  0  3  0  0  0  0  0  0
   -6.9810   10.5520    9.6090 C   0  0  2  0  0  3  0  0  0  0  0  0
  -10.0060    8.7890    5.8450 C   0  0  0  0  0  0  0  0  0  0  0  0
  -10.2070    7.3190    5.4190 C   0  0  0  0  0  1  0  0  0  0  0  0
  -11.3340    9.5570    5.6610 C   0  0  0  0  0  1  0  0  0  0  0  0
   -8.9810    9.4120    4.8710 C   0  0  0  0  0  1  0  0  0  0  0  0
  1  2  1  0  0  0  0
  3  2  2  0  0  0  0
  4  3  1  0  0  0  0
  5  6  1  0  0  0  0
  5  4  2  0  0  0  0
  6  1  2  0  0  0  0
  7  8  2  0  0  0  0
  8 13  1  0  0  0  0
  8  9  1  0  0  0  0
  9 10  2  0  0  0  0
 10 11  1  0  0  0  0
 12 11  2  0  0  0  0
 13  1  1  1  0  0  0
 13 12  1  0  0  0  0
 14  5  1  0  0  0  0
 15 14  1  0  0  0  0
 16 14  1  0  0  0  0
 17 14  1  0  0  0  0
M  END
>  <minimizedAffinity>
-7.29299212

$$$$
