
 OpenBabel08272217153D

 17 18  0  0  1  0  0  0  0  0999 V2000
   35.2310   -8.8770    9.7390 C   0  0  0  0  0  0  0  0  0  0  0  0
   34.5200   -8.0730    8.8400 C   0  0  0  0  0  3  0  0  0  0  0  0
   33.4520   -7.3010    9.2850 C   0  0  0  0  0  3  0  0  0  0  0  0
   33.0840   -7.3200   10.6310 C   0  0  0  0  0  3  0  0  0  0  0  0
   33.7730   -8.1100   11.5700 C   0  0  0  0  0  0  0  0  0  0  0  0
   34.8510   -8.8800   11.0960 C   0  0  0  0  0  3  0  0  0  0  0  0
   38.2090   -8.9300   10.6660 O   0  0  0  0  0  0  0  0  0  0  0  0
   37.7730   -9.0000    9.5180 C   0  0  0  0  0  0  0  0  0  0  0  0
   38.4590   -8.4310    8.4610 N   0  0  0  0  0  0  0  0  0  0  0  0
   38.1330   -8.7480    7.2560 C   0  0  0  0  0  3  0  0  0  0  0  0
   37.0610   -9.6680    6.8410 C   0  0  0  0  0  3  0  0  0  0  0  0
   36.2420  -10.0960    7.8040 C   0  0  0  0  0  3  0  0  0  0  0  0
   36.4160   -9.6960    9.2470 C   0  0  2  0  0  3  0  0  0  0  0  0
   33.3360   -8.1110   13.0460 C   0  0  0  0  0  0  0  0  0  0  0  0
   33.1140   -6.6570   13.5190 C   0  0  0  0  0  1  0  0  0  0  0  0
   32.0180   -8.9010   13.1990 C   0  0  0  0  0  1  0  0  0  0  0  0
   34.3650   -8.7510   14.0050 C   0  0  0  0  0  1  0  0  0  0  0  0
  1  6  1  0  0  0  0
  2  3  1  0  0  0  0
  2  1  2  0  0  0  0
  3  4  2  0  0  0  0
  4  5  1  0  0  0  0
  5 14  1  0  0  0  0
  6  5  2  0  0  0  0
  8  7  2  0  0  0  0
  9  8  1  0  0  0  0
 10  9  2  0  0  0  0
 11 10  1  0  0  0  0
 11 12  2  0  0  0  0
 12 13  1  0  0  0  0
 13  8  1  0  0  0  0
 13  1  1  6  0  0  0
 14 16  1  0  0  0  0
 14 15  1  0  0  0  0
 14 17  1  0  0  0  0
M  END
>  <minimizedAffinity>
-7.45044661

$$$$
