
 OpenBabel09132204463D

 49 53  0  0  1  0  0  0  0  0999 V2000
    5.3540   -0.0740    9.5290 C   0  0  0  0  0  0  0  0  0  0  0  0
    6.5130   -0.6730    9.0390 C   0  0  0  0  0  3  0  0  0  0  0  0
    6.4330   -1.7100    8.0970 C   0  0  0  0  0  3  0  0  0  0  0  0
    5.2020   -2.1230    7.5780 C   0  0  0  0  0  0  0  0  0  0  0  0
    4.0750   -1.4570    8.0200 C   0  0  0  0  0  0  0  0  0  0  0  0
    4.1280   -0.4370    8.9770 C   0  0  0  0  0  3  0  0  0  0  0  0
    2.5370   -1.9140    7.3410 S   0  0  0  0  0  0  0  0  0  0  0  0
    1.7770   -2.4740    8.4350 O   0  0  0  0  0  0  0  0  0  0  0  0
    2.0610   -0.7540    6.6230 O   0  0  0  0  0  0  0  0  0  0  0  0
    2.8710   -3.0690    6.2990 N   0  0  0  0  0  0  0  0  0  0  0  0
    4.0650   -3.5520    6.0890 C   0  0  1  0  0  3  0  0  0  0  0  0
    5.1780   -3.1380    6.6750 N   0  0  0  0  0  0  0  0  0  0  0  0
    2.0910   -3.4640    5.7870 H   0  0  0  0  0  0  0  0  0  0  0  0
    6.0670   -3.6060    6.4440 H   0  0  0  0  0  0  0  0  0  0  0  0
    4.1580   -4.6830    5.0900 C   0  0  0  0  0  0  0  0  0  0  0  0
    4.5180   -4.5140    3.6550 C   0  0  0  0  0  0  0  0  0  0  0  0
    4.5540   -5.8550    2.3960 C   0  0  0  0  0  0  0  0  0  0  0  0
    4.7820   -5.6420    1.0550 C   0  0  0  0  0  3  0  0  0  0  0  0
    4.7020   -6.7920    0.2440 C   0  0  0  0  0  3  0  0  0  0  0  0
    4.3870   -8.1020    0.7370 C   0  0  0  0  0  3  0  0  0  0  0  0
    4.1060   -8.4820    2.0160 N   0  0  0  0  0  0  0  0  0  0  0  0
    4.1960   -7.4680    2.8650 C   0  0  0  0  0  0  0  0  0  0  0  0
    3.5200   -7.6740    4.5690 N   0  0  0  0  0  4  0  0  0  0  0  0
    3.6520   -6.3900    5.8530 C   0  0  0  0  0  0  0  0  0  0  0  0
    3.1880   -6.4370    6.9910 O   0  0  0  0  0  0  0  0  0  0  0  0
    4.8520   -3.2610    3.1630 O   0  0  0  0  0  0  0  0  0  0  0  0
    5.1700   -3.3660    2.2450 H   0  0  0  0  0  0  0  0  0  0  0  0
    2.2360   -7.3850    4.2700 C   0  0  0  0  0  2  0  0  0  0  0  0
    2.3180   -8.7320    4.9440 C   0  0  0  0  0  2  0  0  0  0  0  0
    0.7520   -9.0570    6.4260 C   0  0  0  0  0  2  0  0  0  0  0  0
    0.7540   -8.8520    8.1170 C   0  0  0  0  0  1  0  0  0  0  0  0
   -0.9340   -8.6920    6.3230 C   0  0  0  0  0  1  0  0  0  0  0  0
    5.3280    1.0280   10.4250 N   0  0  0  0  0  0  0  0  0  0  0  0
    6.0330    1.7420   10.2240 H   0  0  0  0  0  0  0  0  0  0  0  0
    5.2520    0.8530   12.0920 S   0  0  0  0  0  0  0  0  0  0  0  0
    5.6720    2.1220   12.6370 O   0  0  0  0  0  0  0  0  0  0  0  0
    5.9280   -0.3660   12.4640 O   0  0  0  0  0  0  0  0  0  0  0  0
    3.5960    0.7360   12.3850 N   0  0  0  0  0  0  0  0  0  0  0  0
    3.3710    1.4350   13.0980 H   0  0  0  0  0  0  0  0  0  0  0  0
    1.8990   -3.0390   13.2570 C   0  0  0  0  0  0  0  0  0  0  0  0
    2.4130   -2.2470   14.2940 C   0  0  0  0  0  3  0  0  0  0  0  0
    2.9740   -0.9980   14.0170 C   0  0  0  0  0  3  0  0  0  0  0  0
    3.0470   -0.5430   12.7010 C   0  0  0  0  0  0  0  0  0  0  0  0
    2.4960   -1.3030   11.6690 C   0  0  0  0  0  3  0  0  0  0  0  0
    1.9310   -2.5530   11.9430 C   0  0  0  0  0  3  0  0  0  0  0  0
    1.3340   -4.3690   13.6110 C   0  0  0  0  0  0  0  0  0  0  0  0
    0.3330   -4.5130   14.2930 O   0  0  0  0  0  0  0  0  0  0  0  0
    1.4570   -6.6420   13.1150 C   0  0  0  0  0  1  0  0  0  0  0  0
    2.1060   -5.3670   13.1090 O   0  0  0  0  0  0  0  0  0  0  0  0
  1 33  1  0  0  0  0
  2  1  1  0  0  0  0
  3  2  2  0  0  0  0
  4  5  2  0  0  0  0
  4  3  1  0  0  0  0
  5  6  1  0  0  0  0
  6  1  2  0  0  0  0
  7  5  1  0  0  0  0
  7  8  2  0  0  0  0
  9  7  2  0  0  0  0
 10  7  1  0  0  0  0
 11 15  1  1  0  0  0
 11 10  1  0  0  0  0
 11 12  1  0  0  0  0
 12  4  1  0  0  0  0
 13 10  1  0  0  0  0
 14 12  1  0  0  0  0
 15 24  1  0  0  0  0
 16 15  2  0  0  0  0
 17 22  1  0  0  0  0
 17 16  1  0  0  0  0
 18 17  2  0  0  0  0
 19 20  2  0  0  0  0
 19 18  1  0  0  0  0
 20 21  1  0  0  0  0
 21 22  2  0  0  0  0
 22 23  1  0  0  0  0
 23 29  1  0  0  0  0
 23 24  1  0  0  0  0
 24 25  2  0  0  0  0
 26 16  1  0  0  0  0
 27 26  1  0  0  0  0
 28 23  1  0  0  0  0
 28 29  1  0  0  0  0
 30 31  1  0  0  0  0
 32 30  1  0  0  0  0
 33 35  1  0  0  0  0
 34 33  1  0  0  0  0
 35 38  1  0  0  0  0
 35 37  2  0  0  0  0
 35 36  2  0  0  0  0
 38 43  1  0  0  0  0
 38 39  1  0  0  0  0
 40 46  1  0  0  0  0
 40 41  1  0  0  0  0
 42 41  2  0  0  0  0
 43 42  1  0  0  0  0
 44 45  1  0  0  0  0
 44 43  2  0  0  0  0
 45 40  2  0  0  0  0
 46 47  2  0  0  0  0
 49 48  1  0  0  0  0
 49 46  1  0  0  0  0
M  END
>  <minimizedAffinity>
-8.71208477

$$$$
