
 OpenBabel09132204463D

 49 53  0  0  1  0  0  0  0  0999 V2000
    4.3420    0.0660    9.3420 C   0  0  0  0  0  0  0  0  0  0  0  0
    3.1020   -0.4350    8.9500 C   0  0  0  0  0  3  0  0  0  0  0  0
    3.0210   -1.4690    8.0020 C   0  0  0  0  0  3  0  0  0  0  0  0
    4.1740   -2.0640    7.4810 C   0  0  0  0  0  0  0  0  0  0  0  0
    5.3900   -1.6030    7.9490 C   0  0  0  0  0  0  0  0  0  0  0  0
    5.4950   -0.5580    8.8740 C   0  0  0  0  0  3  0  0  0  0  0  0
    6.8370   -2.3710    7.3580 S   0  0  0  0  0  0  0  0  0  0  0  0
    7.5390   -1.3580    6.6030 O   0  0  0  0  0  0  0  0  0  0  0  0
    7.4500   -2.9990    8.5060 O   0  0  0  0  0  0  0  0  0  0  0  0
    6.3280   -3.5000    6.3580 N   0  0  0  0  0  0  0  0  0  0  0  0
    5.0760   -3.7120    6.0590 C   0  0  1  0  0  3  0  0  0  0  0  0
    4.0420   -3.0530    6.5600 N   0  0  0  0  0  0  0  0  0  0  0  0
    7.0370   -4.0710    5.9120 H   0  0  0  0  0  0  0  0  0  0  0  0
    3.0930   -3.2950    6.2370 H   0  0  0  0  0  0  0  0  0  0  0  0
    4.8100   -4.8030    5.0470 C   0  0  0  0  0  0  0  0  0  0  0  0
    5.1380   -4.7080    3.5970 C   0  0  0  0  0  0  0  0  0  0  0  0
    4.7470   -5.9790    2.3260 C   0  0  0  0  0  0  0  0  0  0  0  0
    4.9650   -5.8080    0.9780 C   0  0  0  0  0  3  0  0  0  0  0  0
    4.5360   -6.8740    0.1610 C   0  0  0  0  0  3  0  0  0  0  0  0
    3.8940   -8.0570    0.6580 C   0  0  0  0  0  3  0  0  0  0  0  0
    3.5770   -8.3740    1.9460 N   0  0  0  0  0  0  0  0  0  0  0  0
    3.9800   -7.4420    2.7990 C   0  0  0  0  0  0  0  0  0  0  0  0
    3.3500   -7.4920    4.5320 N   0  0  0  0  0  4  0  0  0  0  0  0
    3.8870   -6.3220    5.8180 C   0  0  0  0  0  0  0  0  0  0  0  0
    3.4800   -6.2640    6.9770 O   0  0  0  0  0  0  0  0  0  0  0  0
    5.7820   -3.5850    3.1010 O   0  0  0  0  0  0  0  0  0  0  0  0
    6.0170   -3.7530    2.1670 H   0  0  0  0  0  0  0  0  0  0  0  0
    2.1830   -6.8540    4.2970 C   0  0  0  0  0  2  0  0  0  0  0  0
    1.9230   -8.1700    4.9890 C   0  0  0  0  0  2  0  0  0  0  0  0
    0.3490   -8.0620    6.4940 C   0  0  0  0  0  2  0  0  0  0  0  0
    0.2950   -7.2720    8.0010 C   0  0  0  0  0  1  0  0  0  0  0  0
   -1.3560   -7.8830    6.2720 C   0  0  0  0  0  1  0  0  0  0  0  0
    4.5350    1.0550   10.3440 N   0  0  0  0  0  0  0  0  0  0  0  0
    5.2440    1.7530   10.1050 H   0  0  0  0  0  0  0  0  0  0  0  0
    4.7200    0.6880   11.9710 S   0  0  0  0  0  0  0  0  0  0  0  0
    5.1760    1.9060   12.5960 O   0  0  0  0  0  0  0  0  0  0  0  0
    5.4850   -0.5290   12.0900 O   0  0  0  0  0  0  0  0  0  0  0  0
    3.1330    0.4540   12.4880 N   0  0  0  0  0  0  0  0  0  0  0  0
    2.9980    1.0490   13.3100 H   0  0  0  0  0  0  0  0  0  0  0  0
    1.8470   -3.5050   13.2370 C   0  0  0  0  0  0  0  0  0  0  0  0
    1.9620   -3.0460   11.9180 C   0  0  0  0  0  3  0  0  0  0  0  0
    2.3880   -1.7410   11.6590 C   0  0  0  0  0  3  0  0  0  0  0  0
    2.6780   -0.8800   12.7160 C   0  0  0  0  0  0  0  0  0  0  0  0
    2.6110   -1.3420   14.0310 C   0  0  0  0  0  3  0  0  0  0  0  0
    2.1870   -2.6500   14.2940 C   0  0  0  0  0  3  0  0  0  0  0  0
    1.3680   -4.8970   13.4510 C   0  0  0  0  0  0  0  0  0  0  0  0
    0.5400   -5.2000   14.2940 O   0  0  0  0  0  0  0  0  0  0  0  0
    1.4190   -7.0610   12.5890 C   0  0  0  0  0  1  0  0  0  0  0  0
    2.0080   -5.7580   12.6190 O   0  0  0  0  0  0  0  0  0  0  0  0
  1 33  1  0  0  0  0
  2  1  1  0  0  0  0
  3  2  2  0  0  0  0
  4  5  2  0  0  0  0
  4  3  1  0  0  0  0
  5  6  1  0  0  0  0
  6  1  2  0  0  0  0
  7  5  1  0  0  0  0
  7  9  2  0  0  0  0
  8  7  2  0  0  0  0
 10  7  1  0  0  0  0
 11 15  1  6  0  0  0
 11 10  1  0  0  0  0
 11 12  1  0  0  0  0
 12  4  1  0  0  0  0
 13 10  1  0  0  0  0
 14 12  1  0  0  0  0
 15 24  1  0  0  0  0
 16 15  2  0  0  0  0
 17 22  1  0  0  0  0
 17 16  1  0  0  0  0
 18 17  2  0  0  0  0
 19 20  2  0  0  0  0
 19 18  1  0  0  0  0
 20 21  1  0  0  0  0
 21 22  2  0  0  0  0
 22 23  1  0  0  0  0
 23 29  1  0  0  0  0
 23 24  1  0  0  0  0
 24 25  2  0  0  0  0
 26 16  1  0  0  0  0
 27 26  1  0  0  0  0
 28 23  1  0  0  0  0
 28 29  1  0  0  0  0
 30 31  1  0  0  0  0
 32 30  1  0  0  0  0
 33 35  1  0  0  0  0
 34 33  1  0  0  0  0
 35 37  2  0  0  0  0
 35 38  1  0  0  0  0
 35 36  2  0  0  0  0
 38 43  1  0  0  0  0
 38 39  1  0  0  0  0
 40 46  1  0  0  0  0
 40 45  1  0  0  0  0
 41 40  2  0  0  0  0
 42 41  1  0  0  0  0
 42 43  2  0  0  0  0
 43 44  1  0  0  0  0
 44 45  2  0  0  0  0
 46 47  2  0  0  0  0
 48 49  1  0  0  0  0
 49 46  1  0  0  0  0
M  END
>  <minimizedAffinity>
-8.94899845

$$$$
