
 OpenBabel09132204463D

 49 53  0  0  1  0  0  0  0  0999 V2000
    4.0250   -4.5810    4.0540 C   0  0  0  0  0  0  0  0  0  0  0  0
    3.1020   -3.5440    4.1820 C   0  0  0  0  0  3  0  0  0  0  0  0
    3.2440   -2.5890    5.2010 C   0  0  0  0  0  3  0  0  0  0  0  0
    4.3420   -2.6120    6.0670 C   0  0  0  0  0  0  0  0  0  0  0  0
    5.2840   -3.6020    5.8650 C   0  0  0  0  0  0  0  0  0  0  0  0
    5.1510   -4.5800    4.8720 C   0  0  0  0  0  3  0  0  0  0  0  0
    6.6900   -3.6130    6.8940 S   0  0  0  0  0  0  0  0  0  0  0  0
    6.6010   -4.8310    7.6670 O   0  0  0  0  0  0  0  0  0  0  0  0
    7.8180   -3.3660    6.0250 O   0  0  0  0  0  0  0  0  0  0  0  0
    6.5010   -2.3690    7.8680 N   0  0  0  0  0  0  0  0  0  0  0  0
    5.4600   -1.5820    7.8660 C   0  0  1  0  0  3  0  0  0  0  0  0
    4.4270   -1.6710    7.0420 N   0  0  0  0  0  0  0  0  0  0  0  0
    7.2350   -2.2020    8.5460 H   0  0  0  0  0  0  0  0  0  0  0  0
    3.6490   -1.0020    7.1440 H   0  0  0  0  0  0  0  0  0  0  0  0
    5.4540   -0.4860    8.9080 C   0  0  0  0  0  0  0  0  0  0  0  0
    6.5670    0.4810    9.1220 C   0  0  0  0  0  0  0  0  0  0  0  0
    6.6290    1.7670   10.4350 C   0  0  0  0  0  0  0  0  0  0  0  0
    7.7220    2.5690   10.6720 C   0  0  0  0  0  3  0  0  0  0  0  0
    7.5960    3.4460   11.7690 C   0  0  0  0  0  3  0  0  0  0  0  0
    6.4380    3.5140   12.6130 C   0  0  0  0  0  3  0  0  0  0  0  0
    5.2910    2.7780   12.5420 N   0  0  0  0  0  0  0  0  0  0  0  0
    5.3000    1.9460   11.5100 C   0  0  0  0  0  0  0  0  0  0  0  0
    4.0200    0.6210   11.4270 N   0  0  0  0  0  4  0  0  0  0  0  0
    3.8730   -0.5330   10.0270 C   0  0  0  0  0  0  0  0  0  0  0  0
    3.0790   -1.4660    9.9210 O   0  0  0  0  0  0  0  0  0  0  0  0
    7.6830    0.4520    8.2990 O   0  0  0  0  0  0  0  0  0  0  0  0
    8.2420    1.2250    8.5110 H   0  0  0  0  0  0  0  0  0  0  0  0
    4.6550   -0.2660   12.2220 C   0  0  0  0  0  2  0  0  0  0  0  0
    3.2840    0.0350   12.7760 C   0  0  0  0  0  2  0  0  0  0  0  0
    2.2320   -1.7330   13.4970 C   0  0  0  0  0  2  0  0  0  0  0  0
    0.6410   -1.9300   14.0730 C   0  0  0  0  0  1  0  0  0  0  0  0
    2.2740   -3.3480   12.8840 C   0  0  0  0  0  1  0  0  0  0  0  0
    4.0140   -5.5520    3.0160 N   0  0  0  0  0  0  0  0  0  0  0  0
    3.2600   -5.4230    2.3370 H   0  0  0  0  0  0  0  0  0  0  0  0
    4.1570   -7.2000    3.3020 S   0  0  0  0  0  0  0  0  0  0  0  0
    5.5690   -7.4440    3.4710 O   0  0  0  0  0  0  0  0  0  0  0  0
    3.4030   -7.9130    2.3010 O   0  0  0  0  0  0  0  0  0  0  0  0
    3.4590   -7.3810    4.8250 N   0  0  0  0  0  0  0  0  0  0  0  0
    3.9800   -8.1200    5.3040 H   0  0  0  0  0  0  0  0  0  0  0  0
   -0.7220   -7.9330    5.1580 C   0  0  0  0  0  0  0  0  0  0  0  0
    0.0910   -8.9910    4.7280 C   0  0  0  0  0  3  0  0  0  0  0  0
    1.4730   -8.8210    4.6160 C   0  0  0  0  0  3  0  0  0  0  0  0
    2.0490   -7.5850    4.9100 C   0  0  0  0  0  0  0  0  0  0  0  0
    1.2540   -6.5400    5.3830 C   0  0  0  0  0  3  0  0  0  0  0  0
   -0.1300   -6.7090    5.4990 C   0  0  0  0  0  3  0  0  0  0  0  0
   -2.1880   -8.1680    5.2360 C   0  0  0  0  0  0  0  0  0  0  0  0
   -2.8460   -8.6190    4.3130 O   0  0  0  0  0  0  0  0  0  0  0  0
   -3.5840   -6.6740    6.3530 C   0  0  0  0  0  1  0  0  0  0  0  0
   -2.6740   -7.7740    6.4410 O   0  0  0  0  0  0  0  0  0  0  0  0
  1  2  2  0  0  0  0
  1  6  1  0  0  0  0
  2  3  1  0  0  0  0
  3  4  2  0  0  0  0
  4 12  1  0  0  0  0
  5  4  1  0  0  0  0
  5  7  1  0  0  0  0
  6  5  2  0  0  0  0
  7  8  2  0  0  0  0
  7 10  1  0  0  0  0
  9  7  2  0  0  0  0
 10 13  1  0  0  0  0
 11 10  1  0  0  0  0
 11 15  1  1  0  0  0
 12 14  1  0  0  0  0
 12 11  1  0  0  0  0
 15 16  2  0  0  0  0
 15 24  1  0  0  0  0
 16 17  1  0  0  0  0
 17 18  2  0  0  0  0
 17 22  1  0  0  0  0
 18 19  1  0  0  0  0
 19 20  2  0  0  0  0
 21 20  1  0  0  0  0
 22 21  2  0  0  0  0
 23 22  1  0  0  0  0
 23 28  1  0  0  0  0
 23 29  1  0  0  0  0
 24 23  1  0  0  0  0
 25 24  2  0  0  0  0
 26 27  1  0  0  0  0
 26 16  1  0  0  0  0
 28 29  1  0  0  0  0
 30 31  1  0  0  0  0
 32 30  1  0  0  0  0
 33 35  1  0  0  0  0
 33  1  1  0  0  0  0
 34 33  1  0  0  0  0
 35 36  2  0  0  0  0
 35 38  1  0  0  0  0
 37 35  2  0  0  0  0
 38 43  1  0  0  0  0
 38 39  1  0  0  0  0
 40 46  1  0  0  0  0
 40 45  1  0  0  0  0
 41 40  2  0  0  0  0
 42 41  1  0  0  0  0
 42 43  2  0  0  0  0
 43 44  1  0  0  0  0
 44 45  2  0  0  0  0
 46 49  1  0  0  0  0
 47 46  2  0  0  0  0
 48 49  1  0  0  0  0
M  END
>  <minimizedAffinity>
-8.8593874

$$$$
