
 OpenBabel09132204463D

 49 53  0  0  1  0  0  0  0  0999 V2000
    3.3160   -0.5420   10.5970 C   0  0  0  0  0  0  0  0  0  0  0  0
    2.5420   -0.7670    9.4600 C   0  0  0  0  0  3  0  0  0  0  0  0
    3.1300   -1.2670    8.2880 C   0  0  0  0  0  3  0  0  0  0  0  0
    4.4840   -1.6130    8.2480 C   0  0  0  0  0  0  0  0  0  0  0  0
    5.2100   -1.4570    9.4140 C   0  0  0  0  0  0  0  0  0  0  0  0
    4.6510   -0.9380   10.5870 C   0  0  0  0  0  3  0  0  0  0  0  0
    6.8840   -1.9390    9.4040 S   0  0  0  0  0  0  0  0  0  0  0  0
    7.6430   -0.7250    9.5990 O   0  0  0  0  0  0  0  0  0  0  0  0
    6.9850   -3.0360   10.3400 O   0  0  0  0  0  0  0  0  0  0  0  0
    7.1500   -2.4850    7.9330 N   0  0  0  0  0  0  0  0  0  0  0  0
    6.2620   -2.4910    6.9760 C   0  0  1  0  0  3  0  0  0  0  0  0
    5.0070   -2.0840    7.0860 N   0  0  0  0  0  0  0  0  0  0  0  0
    8.0820   -2.8260    7.7320 H   0  0  0  0  0  0  0  0  0  0  0  0
    4.3970   -2.1180    6.2560 H   0  0  0  0  0  0  0  0  0  0  0  0
    6.7340   -3.0070    5.6360 C   0  0  0  0  0  0  0  0  0  0  0  0
    7.8850   -2.4470    4.8730 C   0  0  0  0  0  0  0  0  0  0  0  0
    8.4280   -2.9930    3.2030 C   0  0  0  0  0  0  0  0  0  0  0  0
    9.4260   -2.3770    2.4820 C   0  0  0  0  0  3  0  0  0  0  0  0
    9.6480   -2.9040    1.1940 C   0  0  0  0  0  3  0  0  0  0  0  0
    8.8960   -3.9880    0.6300 C   0  0  0  0  0  3  0  0  0  0  0  0
    7.8650   -4.6860    1.1870 N   0  0  0  0  0  0  0  0  0  0  0  0
    7.6070   -4.2850    2.4240 C   0  0  0  0  0  0  0  0  0  0  0  0
    6.0420   -4.8380    3.2290 N   0  0  0  0  0  4  0  0  0  0  0  0
    5.6080   -4.4250    4.9470 C   0  0  0  0  0  0  0  0  0  0  0  0
    4.5680   -4.7180    5.5350 O   0  0  0  0  0  0  0  0  0  0  0  0
    8.6420   -1.4170    5.4110 O   0  0  0  0  0  0  0  0  0  0  0  0
    9.4130   -1.2660    4.8300 H   0  0  0  0  0  0  0  0  0  0  0  0
    5.2410   -3.8920    2.6930 C   0  0  0  0  0  2  0  0  0  0  0  0
    4.6150   -5.2540    2.5240 C   0  0  0  0  0  2  0  0  0  0  0  0
    4.6340   -5.9670    0.4630 C   0  0  0  0  0  2  0  0  0  0  0  0
    5.8350   -5.8740   -0.7410 C   0  0  0  0  0  1  0  0  0  0  0  0
    4.0200   -7.4490   -0.1800 C   0  0  0  0  0  1  0  0  0  0  0  0
    2.8070   -0.1110   11.8520 N   0  0  0  0  0  0  0  0  0  0  0  0
    3.3150    0.6810   12.2530 H   0  0  0  0  0  0  0  0  0  0  0  0
    2.4470   -1.1650   13.1060 S   0  0  0  0  0  0  0  0  0  0  0  0
    2.1630   -0.3290   14.2480 O   0  0  0  0  0  0  0  0  0  0  0  0
    3.4720   -2.1780   13.1740 O   0  0  0  0  0  0  0  0  0  0  0  0
    0.9740   -1.8310   12.6290 N   0  0  0  0  0  0  0  0  0  0  0  0
    0.2810   -1.5540   13.3290 H   0  0  0  0  0  0  0  0  0  0  0  0
    0.7540   -5.9550   11.7140 C   0  0  0  0  0  0  0  0  0  0  0  0
    0.5660   -5.5210   13.0330 C   0  0  0  0  0  3  0  0  0  0  0  0
    0.6340   -4.1610   13.3460 C   0  0  0  0  0  3  0  0  0  0  0  0
    0.9150   -3.2290   12.3480 C   0  0  0  0  0  0  0  0  0  0  0  0
    1.0580   -3.6470   11.0240 C   0  0  0  0  0  3  0  0  0  0  0  0
    0.9870   -5.0080   10.7060 C   0  0  0  0  0  3  0  0  0  0  0  0
    0.6910   -7.4170   11.4450 C   0  0  0  0  0  0  0  0  0  0  0  0
    0.1990   -7.8930   10.4350 O   0  0  0  0  0  0  0  0  0  0  0  0
    2.3100   -8.9530   12.1120 C   0  0  0  0  0  1  0  0  0  0  0  0
    1.2100   -8.1180   12.4850 O   0  0  0  0  0  0  0  0  0  0  0  0
  1 33  1  0  0  0  0
  2  1  2  0  0  0  0
  3  2  1  0  0  0  0
  4  3  2  0  0  0  0
  4  5  1  0  0  0  0
  5  6  2  0  0  0  0
  6  1  1  0  0  0  0
  7  5  1  0  0  0  0
  7  8  2  0  0  0  0
  7  9  2  0  0  0  0
 10  7  1  0  0  0  0
 11 15  1  6  0  0  0
 11 12  1  0  0  0  0
 11 10  1  0  0  0  0
 12  4  1  0  0  0  0
 13 10  1  0  0  0  0
 14 12  1  0  0  0  0
 16 26  1  0  0  0  0
 16 15  2  0  0  0  0
 17 16  1  0  0  0  0
 18 17  1  0  0  0  0
 19 18  2  0  0  0  0
 20 21  2  0  0  0  0
 20 19  1  0  0  0  0
 21 22  1  0  0  0  0
 22 17  2  0  0  0  0
 22 23  1  0  0  0  0
 23 24  1  0  0  0  0
 24 25  2  0  0  0  0
 24 15  1  0  0  0  0
 27 26  1  0  0  0  0
 28 23  1  0  0  0  0
 29 28  1  0  0  0  0
 29 23  1  0  0  0  0
 31 30  1  0  0  0  0
 32 30  1  0  0  0  0
 33 34  1  0  0  0  0
 33 35  1  0  0  0  0
 35 37  2  0  0  0  0
 35 36  2  0  0  0  0
 38 35  1  0  0  0  0
 38 39  1  0  0  0  0
 40 41  1  0  0  0  0
 41 42  2  0  0  0  0
 43 38  1  0  0  0  0
 43 42  1  0  0  0  0
 44 43  2  0  0  0  0
 45 44  1  0  0  0  0
 45 40  2  0  0  0  0
 46 40  1  0  0  0  0
 46 49  1  0  0  0  0
 47 46  2  0  0  0  0
 48 49  1  0  0  0  0
M  END
>  <minimizedAffinity>
-8.22674847

$$$$
