
 OpenBabel09132204463D

 49 53  0  0  1  0  0  0  0  0999 V2000
    3.9550   -4.4210    3.9220 C   0  0  0  0  0  0  0  0  0  0  0  0
    3.0290   -3.3930    4.0940 C   0  0  0  0  0  3  0  0  0  0  0  0
    3.1810   -2.4660    5.1380 C   0  0  0  0  0  3  0  0  0  0  0  0
    4.2920   -2.5090    5.9860 C   0  0  0  0  0  0  0  0  0  0  0  0
    5.2360   -3.4880    5.7420 C   0  0  0  0  0  0  0  0  0  0  0  0
    5.0930   -4.4370    4.7230 C   0  0  0  0  0  3  0  0  0  0  0  0
    6.6570   -3.5220    6.7490 S   0  0  0  0  0  0  0  0  0  0  0  0
    6.5870   -4.7620    7.4870 O   0  0  0  0  0  0  0  0  0  0  0  0
    7.7710   -3.2440    5.8710 O   0  0  0  0  0  0  0  0  0  0  0  0
    6.4770   -2.3080    7.7610 N   0  0  0  0  0  0  0  0  0  0  0  0
    5.4330   -1.5260    7.7980 C   0  0  1  0  0  3  0  0  0  0  0  0
    4.3880   -1.5960    6.9870 N   0  0  0  0  0  0  0  0  0  0  0  0
    7.2200   -2.1560    8.4330 H   0  0  0  0  0  0  0  0  0  0  0  0
    3.6090   -0.9350    7.1200 H   0  0  0  0  0  0  0  0  0  0  0  0
    5.4380   -0.4610    8.8710 C   0  0  0  0  0  0  0  0  0  0  0  0
    6.5600    0.4870    9.1140 C   0  0  0  0  0  0  0  0  0  0  0  0
    6.6340    1.7340   10.4650 C   0  0  0  0  0  0  0  0  0  0  0  0
    7.7360    2.5170   10.7260 C   0  0  0  0  0  3  0  0  0  0  0  0
    7.6180    3.3620   11.8480 C   0  0  0  0  0  3  0  0  0  0  0  0
    6.4600    3.4180   12.6930 C   0  0  0  0  0  3  0  0  0  0  0  0
    5.3050    2.6970   12.5990 N   0  0  0  0  0  0  0  0  0  0  0  0
    5.3060    1.8960   11.5430 C   0  0  0  0  0  0  0  0  0  0  0  0
    4.0120    0.5870   11.4200 N   0  0  0  0  0  4  0  0  0  0  0  0
    3.8550   -0.5240    9.9870 C   0  0  0  0  0  0  0  0  0  0  0  0
    3.0510   -1.4440    9.8540 O   0  0  0  0  0  0  0  0  0  0  0  0
    7.6770    0.4700    8.2930 O   0  0  0  0  0  0  0  0  0  0  0  0
    8.2440    1.2310    8.5280 H   0  0  0  0  0  0  0  0  0  0  0  0
    4.6360   -0.3300   12.1890 C   0  0  0  0  0  2  0  0  0  0  0  0
    3.2560   -0.0510   12.7340 C   0  0  0  0  0  2  0  0  0  0  0  0
    2.2240   -1.8390   13.4370 C   0  0  0  0  0  2  0  0  0  0  0  0
    0.6790   -2.0400   14.1230 C   0  0  0  0  0  1  0  0  0  0  0  0
    2.1840   -3.4170   12.7330 C   0  0  0  0  0  1  0  0  0  0  0  0
    3.9330   -5.3610    2.8570 N   0  0  0  0  0  0  0  0  0  0  0  0
    3.1890   -5.1950    2.1740 H   0  0  0  0  0  0  0  0  0  0  0  0
    4.0360   -7.0190    3.0960 S   0  0  0  0  0  0  0  0  0  0  0  0
    5.2210   -7.2240    3.8930 O   0  0  0  0  0  0  0  0  0  0  0  0
    3.8810   -7.6830    1.8250 O   0  0  0  0  0  0  0  0  0  0  0  0
    2.7240   -7.3370    4.1050 N   0  0  0  0  0  0  0  0  0  0  0  0
    2.0280   -6.6090    3.9260 H   0  0  0  0  0  0  0  0  0  0  0  0
    3.3900   -7.9440    8.2380 C   0  0  0  0  0  0  0  0  0  0  0  0
    3.0170   -6.6770    7.7680 C   0  0  0  0  0  3  0  0  0  0  0  0
    2.7920   -6.4660    6.4060 C   0  0  0  0  0  3  0  0  0  0  0  0
    2.9630   -7.5130    5.5010 C   0  0  0  0  0  0  0  0  0  0  0  0
    3.2880   -8.7880    5.9640 C   0  0  0  0  0  3  0  0  0  0  0  0
    3.5110   -9.0040    7.3290 C   0  0  0  0  0  3  0  0  0  0  0  0
    3.6360   -8.1030    9.6960 C   0  0  0  0  0  0  0  0  0  0  0  0
    4.2240   -9.0570   10.1780 O   0  0  0  0  0  0  0  0  0  0  0  0
    3.5250   -7.0080   11.7490 C   0  0  0  0  0  1  0  0  0  0  0  0
    3.0830   -7.0750   10.3910 O   0  0  0  0  0  0  0  0  0  0  0  0
  1  2  2  0  0  0  0
  1  6  1  0  0  0  0
  2  3  1  0  0  0  0
  3  4  2  0  0  0  0
  4 12  1  0  0  0  0
  5  4  1  0  0  0  0
  5  7  1  0  0  0  0
  6  5  2  0  0  0  0
  7  8  2  0  0  0  0
  7 10  1  0  0  0  0
  9  7  2  0  0  0  0
 10 11  1  0  0  0  0
 10 13  1  0  0  0  0
 11 15  1  1  0  0  0
 12 14  1  0  0  0  0
 12 11  1  0  0  0  0
 15 16  2  0  0  0  0
 15 24  1  0  0  0  0
 16 17  1  0  0  0  0
 17 18  2  0  0  0  0
 17 22  1  0  0  0  0
 18 19  1  0  0  0  0
 19 20  2  0  0  0  0
 21 20  1  0  0  0  0
 22 21  2  0  0  0  0
 23 22  1  0  0  0  0
 23 28  1  0  0  0  0
 23 29  1  0  0  0  0
 24 23  1  0  0  0  0
 25 24  2  0  0  0  0
 26 27  1  0  0  0  0
 26 16  1  0  0  0  0
 28 29  1  0  0  0  0
 30 31  1  0  0  0  0
 32 30  1  0  0  0  0
 33 35  1  0  0  0  0
 33  1  1  0  0  0  0
 34 33  1  0  0  0  0
 35 36  2  0  0  0  0
 35 38  1  0  0  0  0
 37 35  2  0  0  0  0
 38 43  1  0  0  0  0
 39 38  1  0  0  0  0
 40 46  1  0  0  0  0
 41 40  1  0  0  0  0
 42 41  2  0  0  0  0
 43 44  2  0  0  0  0
 43 42  1  0  0  0  0
 44 45  1  0  0  0  0
 45 40  2  0  0  0  0
 46 47  2  0  0  0  0
 46 49  1  0  0  0  0
 49 48  1  0  0  0  0
M  END
>  <minimizedAffinity>
-8.25285053

$$$$
