
 OpenBabel09132204463D

 49 53  0  0  1  0  0  0  0  0999 V2000
    4.0090   -6.8140    3.3020 C   0  0  0  0  0  0  0  0  0  0  0  0
    4.6000   -5.6270    2.8700 C   0  0  0  0  0  3  0  0  0  0  0  0
    4.7450   -4.5440    3.7510 C   0  0  0  0  0  3  0  0  0  0  0  0
    4.3640   -4.6470    5.0930 C   0  0  0  0  0  0  0  0  0  0  0  0
    3.8570   -5.8610    5.5140 C   0  0  0  0  0  0  0  0  0  0  0  0
    3.6810   -6.9470    4.6480 C   0  0  0  0  0  3  0  0  0  0  0  0
    3.4340   -6.0310    7.1950 S   0  0  0  0  0  0  0  0  0  0  0  0
    2.0010   -6.2200    7.2220 O   0  0  0  0  0  0  0  0  0  0  0  0
    4.3250   -7.0350    7.7290 O   0  0  0  0  0  0  0  0  0  0  0  0
    3.7810   -4.6250    7.8540 N   0  0  0  0  0  0  0  0  0  0  0  0
    4.2380   -3.5940    7.1970 C   0  0  1  0  0  3  0  0  0  0  0  0
    4.5160   -3.5670    5.9020 N   0  0  0  0  0  0  0  0  0  0  0  0
    3.6090   -4.5280    8.8480 H   0  0  0  0  0  0  0  0  0  0  0  0
    4.8580   -2.6890    5.4840 H   0  0  0  0  0  0  0  0  0  0  0  0
    4.4560   -2.3350    8.0040 C   0  0  0  0  0  0  0  0  0  0  0  0
    5.7120   -1.5330    7.9950 C   0  0  0  0  0  0  0  0  0  0  0  0
    6.0410   -0.0480    9.0300 C   0  0  0  0  0  0  0  0  0  0  0  0
    7.2540    0.6010    9.0760 C   0  0  0  0  0  3  0  0  0  0  0  0
    7.3230    1.6780    9.9830 C   0  0  0  0  0  3  0  0  0  0  0  0
    6.2380    2.0860   10.8290 C   0  0  0  0  0  3  0  0  0  0  0  0
    4.9920    1.5420   10.9320 N   0  0  0  0  0  0  0  0  0  0  0  0
    4.8170    0.5390   10.0830 C   0  0  0  0  0  0  0  0  0  0  0  0
    3.3490   -0.5580   10.2950 N   0  0  0  0  0  4  0  0  0  0  0  0
    2.9520   -1.9180    9.1520 C   0  0  0  0  0  0  0  0  0  0  0  0
    2.0220   -2.7160    9.2520 O   0  0  0  0  0  0  0  0  0  0  0  0
    6.7620   -1.8930    7.1650 O   0  0  0  0  0  0  0  0  0  0  0  0
    7.4420   -1.1920    7.2070 H   0  0  0  0  0  0  0  0  0  0  0  0
    3.8880   -1.3690   11.2310 C   0  0  0  0  0  2  0  0  0  0  0  0
    2.5760   -0.8100   11.7240 C   0  0  0  0  0  2  0  0  0  0  0  0
    1.4220   -2.2260   12.9140 C   0  0  0  0  0  2  0  0  0  0  0  0
    1.7920   -3.8000   13.4480 C   0  0  0  0  0  1  0  0  0  0  0  0
    0.4250   -1.9280   14.2940 C   0  0  0  0  0  1  0  0  0  0  0  0
    3.8840   -7.9890    2.5140 N   0  0  0  0  0  0  0  0  0  0  0  0
    4.5630   -8.7180    2.7470 H   0  0  0  0  0  0  0  0  0  0  0  0
    3.7300   -7.9610    0.8430 S   0  0  0  0  0  0  0  0  0  0  0  0
    3.5080   -6.5780    0.4960 O   0  0  0  0  0  0  0  0  0  0  0  0
    2.7890   -8.9780    0.4440 O   0  0  0  0  0  0  0  0  0  0  0  0
    5.2850   -8.3390    0.3140 N   0  0  0  0  0  0  0  0  0  0  0  0
    5.6280   -9.0920    0.9160 H   0  0  0  0  0  0  0  0  0  0  0  0
    8.1050   -5.1990    0.0300 C   0  0  0  0  0  0  0  0  0  0  0  0
    7.1310   -5.3560   -0.9660 C   0  0  0  0  0  3  0  0  0  0  0  0
    6.1930   -6.3880   -0.8810 C   0  0  0  0  0  3  0  0  0  0  0  0
    6.2380   -7.2840    0.1860 C   0  0  0  0  0  0  0  0  0  0  0  0
    7.1750   -7.1090    1.2060 C   0  0  0  0  0  3  0  0  0  0  0  0
    8.1140   -6.0740    1.1250 C   0  0  0  0  0  3  0  0  0  0  0  0
    9.0900   -4.0950   -0.1260 C   0  0  0  0  0  0  0  0  0  0  0  0
    9.6210   -3.8140   -1.1880 O   0  0  0  0  0  0  0  0  0  0  0  0
    9.3620   -2.0680    0.9890 C   0  0  0  0  0  1  0  0  0  0  0  0
    9.3320   -3.4960    1.0680 O   0  0  0  0  0  0  0  0  0  0  0  0
  1  6  1  0  0  0  0
  2  1  2  0  0  0  0
  2  3  1  0  0  0  0
  3  4  2  0  0  0  0
  4  5  1  0  0  0  0
  4 12  1  0  0  0  0
  5  7  1  0  0  0  0
  6  5  2  0  0  0  0
  7  8  2  0  0  0  0
  7  9  2  0  0  0  0
  7 10  1  0  0  0  0
 10 13  1  0  0  0  0
 11 10  1  0  0  0  0
 11 15  1  6  0  0  0
 12 11  1  0  0  0  0
 14 12  1  0  0  0  0
 15 24  1  0  0  0  0
 16 15  2  0  0  0  0
 16 17  1  0  0  0  0
 17 18  2  0  0  0  0
 17 22  1  0  0  0  0
 18 19  1  0  0  0  0
 19 20  2  0  0  0  0
 20 21  1  0  0  0  0
 22 23  1  0  0  0  0
 22 21  2  0  0  0  0
 23 28  1  0  0  0  0
 23 29  1  0  0  0  0
 24 25  2  0  0  0  0
 24 23  1  0  0  0  0
 26 27  1  0  0  0  0
 26 16  1  0  0  0  0
 28 29  1  0  0  0  0
 30 31  1  0  0  0  0
 30 32  1  0  0  0  0
 33 34  1  0  0  0  0
 33  1  1  0  0  0  0
 35 33  1  0  0  0  0
 36 35  2  0  0  0  0
 37 35  2  0  0  0  0
 38 35  1  0  0  0  0
 38 39  1  0  0  0  0
 40 45  1  0  0  0  0
 41 42  1  0  0  0  0
 41 40  2  0  0  0  0
 42 43  2  0  0  0  0
 43 38  1  0  0  0  0
 43 44  1  0  0  0  0
 45 44  2  0  0  0  0
 46 40  1  0  0  0  0
 46 49  1  0  0  0  0
 47 46  2  0  0  0  0
 48 49  1  0  0  0  0
M  END
>  <minimizedAffinity>
-9.04850578

$$$$
