
 OpenBabel09132204463D

 49 53  0  0  1  0  0  0  0  0999 V2000
    3.5100   -4.8780    4.4540 C   0  0  0  0  0  0  0  0  0  0  0  0
    2.5690   -3.8690    4.6520 C   0  0  0  0  0  3  0  0  0  0  0  0
    2.7820   -2.8810    5.6270 C   0  0  0  0  0  3  0  0  0  0  0  0
    3.9650   -2.8430    6.3730 C   0  0  0  0  0  0  0  0  0  0  0  0
    4.9160   -3.8080    6.0980 C   0  0  0  0  0  0  0  0  0  0  0  0
    4.7140   -4.8170    5.1490 C   0  0  0  0  0  3  0  0  0  0  0  0
    6.4200   -3.7430    6.9730 S   0  0  0  0  0  0  0  0  0  0  0  0
    6.4560   -4.9410    7.7810 O   0  0  0  0  0  0  0  0  0  0  0  0
    7.4420   -3.4840    5.9850 O   0  0  0  0  0  0  0  0  0  0  0  0
    6.2900   -2.4780    7.9300 N   0  0  0  0  0  0  0  0  0  0  0  0
    5.2270   -1.7260    8.0190 C   0  0  1  0  0  3  0  0  0  0  0  0
    4.1180   -1.8720    7.3100 N   0  0  0  0  0  0  0  0  0  0  0  0
    7.0840   -2.2680    8.5230 H   0  0  0  0  0  0  0  0  0  0  0  0
    3.3310   -1.2270    7.4760 H   0  0  0  0  0  0  0  0  0  0  0  0
    5.2910   -0.6020    9.0270 C   0  0  0  0  0  0  0  0  0  0  0  0
    6.4450    0.3260    9.1850 C   0  0  0  0  0  0  0  0  0  0  0  0
    6.5920    1.6450   10.4580 C   0  0  0  0  0  0  0  0  0  0  0  0
    7.7220    2.4100   10.6440 C   0  0  0  0  0  3  0  0  0  0  0  0
    7.6580    3.3220   11.7170 C   0  0  0  0  0  3  0  0  0  0  0  0
    6.5260    3.4590   12.5880 C   0  0  0  0  0  3  0  0  0  0  0  0
    5.3500    2.7680   12.5660 N   0  0  0  0  0  0  0  0  0  0  0  0
    5.2990    1.9080   11.5590 C   0  0  0  0  0  0  0  0  0  0  0  0
    3.9670    0.6320   11.5470 N   0  0  0  0  0  4  0  0  0  0  0  0
    3.7390   -0.5540   10.1860 C   0  0  0  0  0  0  0  0  0  0  0  0
    2.9070   -1.4570   10.1280 O   0  0  0  0  0  0  0  0  0  0  0  0
    7.5380    0.2290    8.3360 O   0  0  0  0  0  0  0  0  0  0  0  0
    8.1320    0.9850    8.5120 H   0  0  0  0  0  0  0  0  0  0  0  0
    4.5870   -0.2570   12.3520 C   0  0  0  0  0  2  0  0  0  0  0  0
    3.1980    0.0270   12.8690 C   0  0  0  0  0  2  0  0  0  0  0  0
    2.1950   -1.7340   13.6730 C   0  0  0  0  0  2  0  0  0  0  0  0
    0.5880   -1.9700   14.1850 C   0  0  0  0  0  1  0  0  0  0  0  0
    2.3460   -3.3860   13.1890 C   0  0  0  0  0  1  0  0  0  0  0  0
    3.4250   -5.8780    3.4480 N   0  0  0  0  0  0  0  0  0  0  0  0
    2.6810   -5.7160    2.7650 H   0  0  0  0  0  0  0  0  0  0  0  0
    3.4480   -7.5220    3.7860 S   0  0  0  0  0  0  0  0  0  0  0  0
    2.0640   -7.9170    3.8900 O   0  0  0  0  0  0  0  0  0  0  0  0
    4.3640   -7.7620    4.8740 O   0  0  0  0  0  0  0  0  0  0  0  0
    4.0270   -8.1940    2.3520 N   0  0  0  0  0  0  0  0  0  0  0  0
    4.3820   -9.1260    2.5830 H   0  0  0  0  0  0  0  0  0  0  0  0
    6.8460   -5.9530    0.1330 C   0  0  0  0  0  0  0  0  0  0  0  0
    5.4950   -5.9440   -0.2410 C   0  0  0  0  0  3  0  0  0  0  0  0
    4.5560   -6.6790    0.4850 C   0  0  0  0  0  3  0  0  0  0  0  0
    4.9630   -7.4460    1.5760 C   0  0  0  0  0  0  0  0  0  0  0  0
    6.2970   -7.4240    1.9850 C   0  0  0  0  0  3  0  0  0  0  0  0
    7.2410   -6.6870    1.2610 C   0  0  0  0  0  3  0  0  0  0  0  0
    7.8040   -5.1690   -0.6920 C   0  0  0  0  0  0  0  0  0  0  0  0
    7.5250   -4.7070   -1.7860 O   0  0  0  0  0  0  0  0  0  0  0  0
    9.6470   -3.8170   -0.2440 C   0  0  0  0  0  1  0  0  0  0  0  0
    9.0120   -5.0880   -0.0780 O   0  0  0  0  0  0  0  0  0  0  0  0
  1  2  2  0  0  0  0
  1  6  1  0  0  0  0
  2  3  1  0  0  0  0
  3  4  2  0  0  0  0
  4 12  1  0  0  0  0
  5  4  1  0  0  0  0
  5  7  1  0  0  0  0
  6  5  2  0  0  0  0
  7  8  2  0  0  0  0
  7 10  1  0  0  0  0
  9  7  2  0  0  0  0
 10 11  1  0  0  0  0
 10 13  1  0  0  0  0
 11 15  1  1  0  0  0
 12 14  1  0  0  0  0
 12 11  1  0  0  0  0
 15 16  2  0  0  0  0
 15 24  1  0  0  0  0
 16 17  1  0  0  0  0
 17 18  2  0  0  0  0
 17 22  1  0  0  0  0
 18 19  1  0  0  0  0
 19 20  2  0  0  0  0
 21 20  1  0  0  0  0
 22 21  2  0  0  0  0
 23 22  1  0  0  0  0
 23 28  1  0  0  0  0
 23 29  1  0  0  0  0
 24 23  1  0  0  0  0
 25 24  2  0  0  0  0
 26 27  1  0  0  0  0
 26 16  1  0  0  0  0
 28 29  1  0  0  0  0
 30 31  1  0  0  0  0
 32 30  1  0  0  0  0
 33 35  1  0  0  0  0
 33  1  1  0  0  0  0
 34 33  1  0  0  0  0
 35 36  2  0  0  0  0
 35 37  2  0  0  0  0
 38 39  1  0  0  0  0
 38 35  1  0  0  0  0
 40 45  1  0  0  0  0
 41 40  2  0  0  0  0
 41 42  1  0  0  0  0
 42 43  2  0  0  0  0
 43 44  1  0  0  0  0
 43 38  1  0  0  0  0
 45 44  2  0  0  0  0
 46 49  1  0  0  0  0
 46 40  1  0  0  0  0
 47 46  2  0  0  0  0
 48 49  1  0  0  0  0
M  END
>  <minimizedAffinity>
-9.63742733

$$$$
