
 OpenBabel09132204463D

 49 53  0  0  1  0  0  0  0  0999 V2000
    5.7420    0.0250    9.2180 C   0  0  0  0  0  0  0  0  0  0  0  0
    6.8450   -0.4890    8.5400 C   0  0  0  0  0  3  0  0  0  0  0  0
    6.6930   -1.5610    7.6450 C   0  0  0  0  0  3  0  0  0  0  0  0
    5.4310   -2.0940    7.3630 C   0  0  0  0  0  0  0  0  0  0  0  0
    4.3450   -1.5120    7.9870 C   0  0  0  0  0  0  0  0  0  0  0  0
    4.4750   -0.4590    8.9010 C   0  0  0  0  0  3  0  0  0  0  0  0
    2.7590   -2.1200    7.6040 S   0  0  0  0  0  0  0  0  0  0  0  0
    2.2570   -2.7060    8.8260 O   0  0  0  0  0  0  0  0  0  0  0  0
    2.0610   -1.0300    6.9620 O   0  0  0  0  0  0  0  0  0  0  0  0
    3.0050   -3.2770    6.5390 N   0  0  0  0  0  0  0  0  0  0  0  0
    4.1820   -3.6640    6.1280 C   0  0  1  0  0  3  0  0  0  0  0  0
    5.3390   -3.1370    6.4980 N   0  0  0  0  0  0  0  0  0  0  0  0
    2.1860   -3.7550    6.1830 H   0  0  0  0  0  0  0  0  0  0  0  0
    6.2120   -3.5350    6.1200 H   0  0  0  0  0  0  0  0  0  0  0  0
    4.1980   -4.8160    5.1490 C   0  0  0  0  0  0  0  0  0  0  0  0
    4.5370   -4.6920    3.7040 C   0  0  0  0  0  0  0  0  0  0  0  0
    4.4810   -6.0550    2.4710 C   0  0  0  0  0  0  0  0  0  0  0  0
    4.6930   -5.8780    1.1220 C   0  0  0  0  0  3  0  0  0  0  0  0
    4.5390   -7.0370    0.3340 C   0  0  0  0  0  3  0  0  0  0  0  0
    4.1680   -8.3200    0.8570 C   0  0  0  0  0  3  0  0  0  0  0  0
    3.8940   -8.6620    2.1490 N   0  0  0  0  0  0  0  0  0  0  0  0
    4.0520   -7.6390    2.9770 C   0  0  0  0  0  0  0  0  0  0  0  0
    3.4000   -7.7800    4.6970 N   0  0  0  0  0  4  0  0  0  0  0  0
    3.6220   -6.4820    5.9530 C   0  0  0  0  0  0  0  0  0  0  0  0
    3.1790   -6.4840    7.1000 O   0  0  0  0  0  0  0  0  0  0  0  0
    4.9240   -3.4660    3.1830 O   0  0  0  0  0  0  0  0  0  0  0  0
    5.2180   -3.6030    2.2600 H   0  0  0  0  0  0  0  0  0  0  0  0
    2.1260   -7.4310    4.4160 C   0  0  0  0  0  2  0  0  0  0  0  0
    2.1550   -8.7800    5.0920 C   0  0  0  0  0  2  0  0  0  0  0  0
    0.5510   -9.0590    6.5420 C   0  0  0  0  0  2  0  0  0  0  0  0
    0.5040   -8.7880    8.2230 C   0  0  0  0  0  1  0  0  0  0  0  0
   -1.1340   -8.7110    6.3780 C   0  0  0  0  0  1  0  0  0  0  0  0
    5.7750    1.1510   10.0840 N   0  0  0  0  0  0  0  0  0  0  0  0
    6.5130    1.8230    9.8600 H   0  0  0  0  0  0  0  0  0  0  0  0
    5.7030    1.0240   11.7560 S   0  0  0  0  0  0  0  0  0  0  0  0
    5.7640   -0.3900   12.0420 O   0  0  0  0  0  0  0  0  0  0  0  0
    4.6030    1.8230   12.2370 O   0  0  0  0  0  0  0  0  0  0  0  0
    7.1790    1.6710   12.2490 N   0  0  0  0  0  0  0  0  0  0  0  0
    7.4620    1.1600   13.0890 H   0  0  0  0  0  0  0  0  0  0  0  0
    7.5560    5.8580   12.7210 C   0  0  0  0  0  0  0  0  0  0  0  0
    7.1700    5.0640   13.8100 C   0  0  0  0  0  3  0  0  0  0  0  0
    7.0450    3.6800   13.6660 C   0  0  0  0  0  3  0  0  0  0  0  0
    7.2800    3.0840   12.4270 C   0  0  0  0  0  0  0  0  0  0  0  0
    7.7080    3.8600   11.3500 C   0  0  0  0  0  3  0  0  0  0  0  0
    7.8380    5.2460   11.4910 C   0  0  0  0  0  3  0  0  0  0  0  0
    7.6510    7.3270   12.9290 C   0  0  0  0  0  0  0  0  0  0  0  0
    6.8980    7.9520   13.6580 O   0  0  0  0  0  0  0  0  0  0  0  0
    9.1770    9.0740   12.7030 C   0  0  0  0  0  1  0  0  0  0  0  0
    8.6470    7.8560   12.1720 O   0  0  0  0  0  0  0  0  0  0  0  0
  1 33  1  0  0  0  0
  2  1  2  0  0  0  0
  3  2  1  0  0  0  0
  4  3  2  0  0  0  0
  4  5  1  0  0  0  0
  5  6  2  0  0  0  0
  6  1  1  0  0  0  0
  7  5  1  0  0  0  0
  7  8  2  0  0  0  0
  9  7  2  0  0  0  0
 10  7  1  0  0  0  0
 11 15  1  1  0  0  0
 11 12  1  0  0  0  0
 11 10  1  0  0  0  0
 12  4  1  0  0  0  0
 13 10  1  0  0  0  0
 14 12  1  0  0  0  0
 15 24  1  0  0  0  0
 16 15  2  0  0  0  0
 17 22  1  0  0  0  0
 17 16  1  0  0  0  0
 18 17  2  0  0  0  0
 19 20  2  0  0  0  0
 19 18  1  0  0  0  0
 20 21  1  0  0  0  0
 21 22  2  0  0  0  0
 22 23  1  0  0  0  0
 23 29  1  0  0  0  0
 23 24  1  0  0  0  0
 24 25  2  0  0  0  0
 26 16  1  0  0  0  0
 27 26  1  0  0  0  0
 28 23  1  0  0  0  0
 28 29  1  0  0  0  0
 30 31  1  0  0  0  0
 32 30  1  0  0  0  0
 33 35  1  0  0  0  0
 34 33  1  0  0  0  0
 35 36  2  0  0  0  0
 35 37  2  0  0  0  0
 35 38  1  0  0  0  0
 38 43  1  0  0  0  0
 38 39  1  0  0  0  0
 40 46  1  0  0  0  0
 40 41  1  0  0  0  0
 42 41  2  0  0  0  0
 43 42  1  0  0  0  0
 44 45  1  0  0  0  0
 44 43  2  0  0  0  0
 45 40  2  0  0  0  0
 46 47  2  0  0  0  0
 49 48  1  0  0  0  0
 49 46  1  0  0  0  0
M  END
>  <minimizedAffinity>
-8.5529604

$$$$
