
 OpenBabel09122222393D

 30 32  0  0  1  0  0  0  0  0999 V2000
    2.0090    4.9020   -4.4750 N   0  0  0  0  0  0  0  0  0  0  0  0
    1.6950    4.2960   -3.2510 C   0  0  0  0  0  0  0  0  0  0  0  0
    2.1340    4.6070   -2.1490 O   0  0  0  0  0  0  0  0  0  0  0  0
    0.6950    3.2190   -3.2310 C   0  0  0  0  0  0  0  0  0  0  0  0
    0.9740    2.0650   -3.9800 C   0  0  0  0  0  3  0  0  0  0  0  0
    0.0520    1.0190   -4.0110 C   0  0  0  0  0  3  0  0  0  0  0  0
   -1.1480    1.1410   -3.3130 C   0  0  0  0  0  0  0  0  0  0  0  0
   -2.2830   -0.1540   -3.3380 Cl  0  0  0  0  0  0  0  0  0  0  0  0
   -1.4450    2.3020   -2.5970 C   0  0  0  0  0  3  0  0  0  0  0  0
   -0.5260    3.3540   -2.5650 C   0  0  0  0  0  0  0  0  0  0  0  0
   -0.9520    4.7720   -1.6770 Cl  0  0  0  0  0  0  0  0  0  0  0  0
    2.6990    6.2320   -4.4180 C   0  0  1  0  0  3  0  0  0  0  0  0
    1.8240    8.3580   -5.1330 O   0  0  0  0  0  0  0  0  0  0  0  0
    1.7420    7.4580   -4.2480 C   0  0  0  0  0  0  0  0  0  0  0  0
    0.8800    7.3350   -3.3180 O   0  0  0  0  0  1  0  0  0  0  0  0
    4.0630    6.2320   -3.6990 C   0  0  0  0  0  2  0  0  0  0  0  0
    5.2940    6.7600   -4.3910 C   0  0  0  0  0  0  0  0  0  0  0  0
    5.2920    8.0310   -4.9860 C   0  0  0  0  0  3  0  0  0  0  0  0
    6.4420    8.5270   -5.6040 C   0  0  0  0  0  3  0  0  0  0  0  0
    7.6060    7.7620   -5.6320 C   0  0  0  0  0  3  0  0  0  0  0  0
    7.6180    6.4980   -5.0450 C   0  0  0  0  0  3  0  0  0  0  0  0
    6.4690    6.0000   -4.4290 C   0  0  0  0  0  3  0  0  0  0  0  0
    1.2830    4.6060   -5.7160 C   0  0  0  0  0  2  0  0  0  0  0  0
    2.0390    3.7030   -6.6640 C   0  0  0  0  0  0  0  0  0  0  0  0
    2.7170    4.2310   -7.7720 C   0  0  0  0  0  3  0  0  0  0  0  0
    3.4100    3.3930   -8.6480 C   0  0  0  0  0  3  0  0  0  0  0  0
    3.4310    2.0170   -8.4280 C   0  0  0  0  0  3  0  0  0  0  0  0
    2.7490    1.4840   -7.3370 C   0  0  0  0  0  0  0  0  0  0  0  0
    2.7870   -0.3810   -7.0270 Br  0  0  0  0  0  0  0  0  0  0  0  0
    2.0460    2.3130   -6.4650 C   0  0  0  0  0  3  0  0  0  0  0  0
  1 12  1  0  0  0  0
  1  2  1  0  0  0  0
  2  4  1  0  0  0  0
  2  3  2  0  0  0  0
  4 10  1  0  0  0  0
  5  4  2  0  0  0  0
  6  5  1  0  0  0  0
  6  7  2  0  0  0  0
  7  9  1  0  0  0  0
  8  7  1  0  0  0  0
  9 10  2  0  0  0  0
 10 11  1  0  0  0  0
 12 14  1  0  0  0  0
 12 16  1  1  0  0  0
 13 14  2  0  0  0  0
 14 15  1  0  0  0  0
 17 16  1  0  0  0  0
 18 17  2  0  0  0  0
 19 18  1  0  0  0  0
 20 19  2  0  0  0  0
 20 21  1  0  0  0  0
 21 22  2  0  0  0  0
 22 17  1  0  0  0  0
 23  1  1  0  0  0  0
 24 30  1  0  0  0  0
 24 23  1  0  0  0  0
 25 24  2  0  0  0  0
 26 27  2  0  0  0  0
 26 25  1  0  0  0  0
 27 28  1  0  0  0  0
 28 29  1  0  0  0  0
 28 30  2  0  0  0  0
M  END
>  <minimizedAffinity>
78.1244125

$$$$
