
 OpenBabel09122222393D

 30 32  0  0  1  0  0  0  0  0999 V2000
   -1.3340    1.5130   -4.8530 N   0  0  0  0  0  0  0  0  0  0  0  0
   -0.0070    1.7550   -4.4710 C   0  0  0  0  0  0  0  0  0  0  0  0
    0.4680    1.6070   -3.3500 O   0  0  0  0  0  0  0  0  0  0  0  0
    0.9600    2.1670   -5.4980 C   0  0  0  0  0  0  0  0  0  0  0  0
    1.3210    1.2150   -6.4640 C   0  0  0  0  0  3  0  0  0  0  0  0
    2.2480    1.5470   -7.4510 C   0  0  0  0  0  3  0  0  0  0  0  0
    2.8220    2.8170   -7.4560 C   0  0  0  0  0  0  0  0  0  0  0  0
    3.9580    3.2340   -8.6820 Cl  0  0  0  0  0  0  0  0  0  0  0  0
    2.4930    3.7540   -6.4750 C   0  0  0  0  0  3  0  0  0  0  0  0
    1.5660    3.4260   -5.4820 C   0  0  0  0  0  0  0  0  0  0  0  0
    1.2090    4.6190   -4.2860 Cl  0  0  0  0  0  0  0  0  0  0  0  0
   -2.1810    0.7200   -3.9030 C   0  0  1  0  0  3  0  0  0  0  0  0
   -3.8580   -0.9100   -4.4740 O   0  0  0  0  0  1  0  0  0  0  0  0
   -2.6130   -0.6880   -4.4330 C   0  0  0  0  0  0  0  0  0  0  0  0
   -1.6640   -1.3930   -4.9060 O   0  0  0  0  0  0  0  0  0  0  0  0
   -1.8280    0.8910   -2.4120 C   0  0  0  0  0  2  0  0  0  0  0  0
   -2.2700    2.1190   -1.6570 C   0  0  0  0  0  0  0  0  0  0  0  0
   -3.1040    2.0110   -0.5340 C   0  0  0  0  0  3  0  0  0  0  0  0
   -3.4890    3.1490    0.1770 C   0  0  0  0  0  3  0  0  0  0  0  0
   -3.0440    4.4070   -0.2240 C   0  0  0  0  0  3  0  0  0  0  0  0
   -2.2160    4.5270   -1.3380 C   0  0  0  0  0  3  0  0  0  0  0  0
   -1.8310    3.3900   -2.0510 C   0  0  0  0  0  3  0  0  0  0  0  0
   -1.7690    1.5160   -6.2540 C   0  0  0  0  0  2  0  0  0  0  0  0
   -2.4430    2.8010   -6.6800 C   0  0  0  0  0  0  0  0  0  0  0  0
   -3.8010    3.0240   -6.4070 C   0  0  0  0  0  3  0  0  0  0  0  0
   -4.4210    4.2100   -6.8060 C   0  0  0  0  0  3  0  0  0  0  0  0
   -3.6930    5.1840   -7.4860 C   0  0  0  0  0  3  0  0  0  0  0  0
   -2.3480    4.9640   -7.7720 C   0  0  0  0  0  0  0  0  0  0  0  0
   -1.3520    6.2900   -8.6810 Br  0  0  0  0  0  0  0  0  0  0  0  0
   -1.7240    3.7790   -7.3860 C   0  0  0  0  0  3  0  0  0  0  0  0
  1  2  1  0  0  0  0
  1 12  1  0  0  0  0
  2  3  2  0  0  0  0
  4 10  1  0  0  0  0
  4  2  1  0  0  0  0
  5  4  2  0  0  0  0
  6  5  1  0  0  0  0
  7  6  2  0  0  0  0
  7  9  1  0  0  0  0
  8  7  1  0  0  0  0
  9 10  2  0  0  0  0
 10 11  1  0  0  0  0
 12 16  1  1  0  0  0
 13 14  1  0  0  0  0
 14 12  1  0  0  0  0
 15 14  2  0  0  0  0
 16 17  1  0  0  0  0
 17 18  1  0  0  0  0
 18 19  2  0  0  0  0
 20 19  1  0  0  0  0
 21 20  2  0  0  0  0
 22 17  2  0  0  0  0
 22 21  1  0  0  0  0
 23  1  1  0  0  0  0
 24 25  1  0  0  0  0
 24 23  1  0  0  0  0
 26 25  2  0  0  0  0
 27 26  1  0  0  0  0
 28 27  2  0  0  0  0
 28 30  1  0  0  0  0
 29 28  1  0  0  0  0
 30 24  2  0  0  0  0
M  END
>  <minimizedAffinity>
75.6751022

$$$$
