
 OpenBabel09122222393D

 30 32  0  0  1  0  0  0  0  0999 V2000
   -1.4320    0.6250   -4.0170 N   0  0  0  0  0  0  0  0  0  0  0  0
   -2.2890   -0.3350   -3.4630 C   0  0  0  0  0  0  0  0  0  0  0  0
   -2.5750   -0.4600   -2.2770 O   0  0  0  0  0  0  0  0  0  0  0  0
   -2.9870   -1.2640   -4.3630 C   0  0  0  0  0  0  0  0  0  0  0  0
   -2.1990   -2.1320   -5.1330 C   0  0  0  0  0  3  0  0  0  0  0  0
   -2.8080   -3.0220   -6.0170 C   0  0  0  0  0  3  0  0  0  0  0  0
   -4.1960   -3.0250   -6.1400 C   0  0  0  0  0  0  0  0  0  0  0  0
   -4.9530   -4.1320   -7.2210 Cl  0  0  0  0  0  0  0  0  0  0  0  0
   -4.9820   -2.1380   -5.4030 C   0  0  0  0  0  3  0  0  0  0  0  0
   -4.3760   -1.2420   -4.5180 C   0  0  0  0  0  0  0  0  0  0  0  0
   -5.3960   -0.1570   -3.6430 Cl  0  0  0  0  0  0  0  0  0  0  0  0
   -1.0640    1.7910   -3.1490 C   0  0  1  0  0  3  0  0  0  0  0  0
    0.8230    3.1290   -2.4830 O   0  0  0  0  0  1  0  0  0  0  0  0
    0.3910    2.3300   -3.3620 C   0  0  0  0  0  0  0  0  0  0  0  0
    1.0270    1.7800   -4.3180 O   0  0  0  0  0  0  0  0  0  0  0  0
   -2.2070    2.7880   -2.8720 C   0  0  0  0  0  2  0  0  0  0  0  0
   -2.7590    2.9510   -1.4780 C   0  0  0  0  0  0  0  0  0  0  0  0
   -2.7700    4.2070   -0.8530 C   0  0  0  0  0  3  0  0  0  0  0  0
   -3.3060    4.3580    0.4270 C   0  0  0  0  0  3  0  0  0  0  0  0
   -3.8380    3.2580    1.0960 C   0  0  0  0  0  3  0  0  0  0  0  0
   -3.8310    2.0050    0.4850 C   0  0  0  0  0  3  0  0  0  0  0  0
   -3.2950    1.8530   -0.7940 C   0  0  0  0  0  3  0  0  0  0  0  0
   -1.3080    0.8360   -5.4640 C   0  0  0  0  0  2  0  0  0  0  0  0
   -2.2240    1.9120   -6.0040 C   0  0  0  0  0  0  0  0  0  0  0  0
   -3.5640    1.9860   -5.5950 C   0  0  0  0  0  3  0  0  0  0  0  0
   -4.4070    2.9780   -6.0990 C   0  0  0  0  0  3  0  0  0  0  0  0
   -3.9230    3.9040   -7.0210 C   0  0  0  0  0  3  0  0  0  0  0  0
   -2.5980    3.8280   -7.4420 C   0  0  0  0  0  0  0  0  0  0  0  0
   -1.9330    5.0920   -8.6820 Br  0  0  0  0  0  0  0  0  0  0  0  0
   -1.7530    2.8340   -6.9510 C   0  0  0  0  0  3  0  0  0  0  0  0
  1  2  1  0  0  0  0
  1 12  1  0  0  0  0
  2  3  2  0  0  0  0
  4  2  1  0  0  0  0
  5  4  2  0  0  0  0
  6  5  1  0  0  0  0
  7  6  2  0  0  0  0
  7  9  1  0  0  0  0
  8  7  1  0  0  0  0
  9 10  2  0  0  0  0
 10  4  1  0  0  0  0
 10 11  1  0  0  0  0
 12 16  1  6  0  0  0
 14 12  1  0  0  0  0
 14 13  1  0  0  0  0
 15 14  2  0  0  0  0
 16 17  1  0  0  0  0
 17 18  2  0  0  0  0
 17 22  1  0  0  0  0
 18 19  1  0  0  0  0
 19 20  2  0  0  0  0
 21 20  1  0  0  0  0
 22 21  2  0  0  0  0
 23  1  1  0  0  0  0
 24 25  1  0  0  0  0
 24 23  1  0  0  0  0
 26 25  2  0  0  0  0
 27 26  1  0  0  0  0
 28 27  2  0  0  0  0
 28 30  1  0  0  0  0
 29 28  1  0  0  0  0
 30 24  2  0  0  0  0
M  END
>  <minimizedAffinity>
77.5367508

$$$$
