
 OpenBabel09122222393D

 30 32  0  0  1  0  0  0  0  0999 V2000
   -1.6530    1.3030   -3.7570 N   0  0  0  0  0  0  0  0  0  0  0  0
   -1.1360    2.0850   -2.7150 C   0  0  0  0  0  0  0  0  0  0  0  0
    0.0060    2.5240   -2.6300 O   0  0  0  0  0  0  0  0  0  0  0  0
   -2.0340    2.4980   -1.6280 C   0  0  0  0  0  0  0  0  0  0  0  0
   -2.8170    1.5020   -1.0230 C   0  0  0  0  0  3  0  0  0  0  0  0
   -3.7000    1.8410    0.0020 C   0  0  0  0  0  3  0  0  0  0  0  0
   -3.8090    3.1720    0.4010 C   0  0  0  0  0  0  0  0  0  0  0  0
   -4.8890    3.5920    1.6760 Cl  0  0  0  0  0  0  0  0  0  0  0  0
   -3.0600    4.1710   -0.2220 C   0  0  0  0  0  3  0  0  0  0  0  0
   -2.1750    3.8370   -1.2520 C   0  0  0  0  0  0  0  0  0  0  0  0
   -1.2850    5.1140   -1.9970 Cl  0  0  0  0  0  0  0  0  0  0  0  0
   -0.8530    1.2420   -5.0240 C   0  0  1  0  0  3  0  0  0  0  0  0
   -1.0890    1.4780   -7.4080 O   0  0  0  0  0  0  0  0  0  0  0  0
   -1.5930    1.7890   -6.2900 C   0  0  0  0  0  0  0  0  0  0  0  0
   -2.7060    2.3590   -6.0510 O   0  0  0  0  0  1  0  0  0  0  0  0
    0.6570    1.5040   -4.8570 C   0  0  0  0  0  2  0  0  0  0  0  0
    1.3970    2.3700   -5.8460 C   0  0  0  0  0  0  0  0  0  0  0  0
    1.0530    3.7190   -6.0150 C   0  0  0  0  0  3  0  0  0  0  0  0
    1.7570    4.5240   -6.9130 C   0  0  0  0  0  3  0  0  0  0  0  0
    2.8140    3.9910   -7.6480 C   0  0  0  0  0  3  0  0  0  0  0  0
    3.1630    2.6520   -7.4890 C   0  0  0  0  0  3  0  0  0  0  0  0
    2.4590    1.8460   -6.5930 C   0  0  0  0  0  3  0  0  0  0  0  0
   -3.0830    0.9960   -3.8830 C   0  0  0  0  0  2  0  0  0  0  0  0
   -3.3640   -0.3900   -4.4210 C   0  0  0  0  0  0  0  0  0  0  0  0
   -4.6600   -0.9240   -4.3870 C   0  0  0  0  0  3  0  0  0  0  0  0
   -4.9140   -2.2050   -4.8810 C   0  0  0  0  0  3  0  0  0  0  0  0
   -3.8750   -2.9680   -5.4090 C   0  0  0  0  0  3  0  0  0  0  0  0
   -2.5830   -2.4490   -5.4340 C   0  0  0  0  0  0  0  0  0  0  0  0
   -1.1730   -3.4760   -6.1640 Br  0  0  0  0  0  0  0  0  0  0  0  0
   -2.3190   -1.1750   -4.9340 C   0  0  0  0  0  3  0  0  0  0  0  0
  1  2  1  0  0  0  0
  2  3  2  0  0  0  0
  2  4  1  0  0  0  0
  4 10  2  0  0  0  0
  4  5  1  0  0  0  0
  5  6  2  0  0  0  0
  6  7  1  0  0  0  0
  7  8  1  0  0  0  0
  9  7  2  0  0  0  0
 10  9  1  0  0  0  0
 11 10  1  0  0  0  0
 12 16  1  1  0  0  0
 12  1  1  0  0  0  0
 13 14  2  0  0  0  0
 14 15  1  0  0  0  0
 14 12  1  0  0  0  0
 17 16  1  0  0  0  0
 18 17  1  0  0  0  0
 19 18  2  0  0  0  0
 20 21  2  0  0  0  0
 20 19  1  0  0  0  0
 21 22  1  0  0  0  0
 22 17  2  0  0  0  0
 23  1  1  0  0  0  0
 24 25  1  0  0  0  0
 24 23  1  0  0  0  0
 26 25  2  0  0  0  0
 27 26  1  0  0  0  0
 28 27  2  0  0  0  0
 28 30  1  0  0  0  0
 29 28  1  0  0  0  0
 30 24  2  0  0  0  0
M  END
>  <minimizedAffinity>
76.2094269

$$$$
