
 OpenBabel09122222393D

 30 32  0  0  1  0  0  0  0  0999 V2000
    2.3530    4.8050   -5.0070 N   0  0  0  0  0  0  0  0  0  0  0  0
    1.7120    4.2590   -3.8870 C   0  0  0  0  0  0  0  0  0  0  0  0
    1.7710    4.6790   -2.7360 O   0  0  0  0  0  0  0  0  0  0  0  0
    0.8170    3.1090   -4.0740 C   0  0  0  0  0  0  0  0  0  0  0  0
   -0.1350    2.8610   -3.0740 C   0  0  0  0  0  3  0  0  0  0  0  0
   -0.9980    1.7720   -3.1920 C   0  0  0  0  0  3  0  0  0  0  0  0
   -0.8910    0.9280   -4.2970 C   0  0  0  0  0  0  0  0  0  0  0  0
   -1.9640   -0.4100   -4.4520 Cl  0  0  0  0  0  0  0  0  0  0  0  0
    0.0790    1.1500   -5.2750 C   0  0  0  0  0  3  0  0  0  0  0  0
    0.9480    2.2380   -5.1600 C   0  0  0  0  0  0  0  0  0  0  0  0
    2.1380    2.4550   -6.3920 Cl  0  0  0  0  0  0  0  0  0  0  0  0
    2.9160    6.1870   -4.8630 C   0  0  1  0  0  3  0  0  0  0  0  0
    0.9990    7.1600   -3.7800 O   0  0  0  0  0  1  0  0  0  0  0  0
    1.8430    7.3160   -4.7090 C   0  0  0  0  0  0  0  0  0  0  0  0
    2.0380    8.3390   -5.4410 O   0  0  0  0  0  0  0  0  0  0  0  0
    4.2310    6.2790   -4.0630 C   0  0  0  0  0  2  0  0  0  0  0  0
    5.4610    6.8940   -4.6810 C   0  0  0  0  0  0  0  0  0  0  0  0
    5.4170    8.1810   -5.2370 C   0  0  0  0  0  3  0  0  0  0  0  0
    6.5650    8.7580   -5.7850 C   0  0  0  0  0  3  0  0  0  0  0  0
    7.7690    8.0560   -5.7800 C   0  0  0  0  0  3  0  0  0  0  0  0
    7.8240    6.7760   -5.2310 C   0  0  0  0  0  3  0  0  0  0  0  0
    6.6770    6.1990   -4.6850 C   0  0  0  0  0  3  0  0  0  0  0  0
    2.0630    4.3670   -6.3780 C   0  0  0  0  0  2  0  0  0  0  0  0
    1.1500    5.3050   -7.1360 C   0  0  0  0  0  0  0  0  0  0  0  0
    1.6750    6.3690   -7.8840 C   0  0  0  0  0  3  0  0  0  0  0  0
    0.8290    7.2350   -8.5800 C   0  0  0  0  0  3  0  0  0  0  0  0
   -0.5520    7.0490   -8.5320 C   0  0  0  0  0  3  0  0  0  0  0  0
   -1.0810    6.0030   -7.7800 C   0  0  0  0  0  0  0  0  0  0  0  0
   -2.9520    5.7390   -7.7250 Br  0  0  0  0  0  0  0  0  0  0  0  0
   -0.2430    5.1410   -7.0750 C   0  0  0  0  0  3  0  0  0  0  0  0
  1 12  1  0  0  0  0
  1  2  1  0  0  0  0
  2  3  2  0  0  0  0
  4  2  1  0  0  0  0
  4  5  1  0  0  0  0
  6  5  2  0  0  0  0
  7  6  1  0  0  0  0
  8  7  1  0  0  0  0
  9 10  1  0  0  0  0
  9  7  2  0  0  0  0
 10  4  2  0  0  0  0
 11 10  1  0  0  0  0
 12 14  1  0  0  0  0
 12 16  1  1  0  0  0
 14 13  1  0  0  0  0
 15 14  2  0  0  0  0
 17 16  1  0  0  0  0
 18 17  2  0  0  0  0
 19 20  2  0  0  0  0
 19 18  1  0  0  0  0
 20 21  1  0  0  0  0
 21 22  2  0  0  0  0
 22 17  1  0  0  0  0
 23  1  1  0  0  0  0
 24 30  1  0  0  0  0
 24 23  1  0  0  0  0
 25 24  2  0  0  0  0
 26 27  2  0  0  0  0
 26 25  1  0  0  0  0
 27 28  1  0  0  0  0
 28 29  1  0  0  0  0
 28 30  2  0  0  0  0
M  END
>  <minimizedAffinity>
76.4449768

$$$$
