
 OpenBabel09092210413D

 42 47  0  0  0  0  0  0  0  0999 V2000
    5.2060    3.3450    4.1230 C   0  0  0  0  0  1  0  0  0  0  0  0
    4.3090    2.5470    4.9580 N   0  0  0  0  0  0  0  0  0  0  0  0
    3.4520    1.5910    4.2610 C   0  0  0  0  0  2  0  0  0  0  0  0
    4.2100    0.3330    3.8220 C   0  0  0  0  0  2  0  0  0  0  0  0
    4.5260   -0.6080    4.9890 C   0  0  0  0  0  2  0  0  0  0  0  0
    5.3360   -1.8220    4.5400 C   0  0  0  0  0  2  0  0  0  0  0  0
    6.7680   -1.6530    4.9480 N   0  0  0  0  0  0  0  0  0  0  0  0
    7.1280   -2.6080    6.0220 C   0  0  0  0  0  1  0  0  0  0  0  0
    7.8360   -1.5850    3.6360 S   0  0  0  0  0  0  0  0  0  0  0  0
    7.8910   -2.9090    3.0620 O   0  0  0  0  0  0  0  0  0  0  0  0
    7.5140   -0.4260    2.8430 O   0  0  0  0  0  0  0  0  0  0  0  0
    9.2930   -1.3630    4.4130 N   0  0  0  0  0  0  0  0  0  0  0  0
   10.1560   -0.3100    4.0620 C   0  0  0  0  0  0  0  0  0  0  0  0
   11.2630   -0.5740    3.6150 O   0  0  0  0  0  0  0  0  0  0  0  0
    9.7590    1.0890    4.3820 C   0  0  0  0  0  0  0  0  0  0  0  0
   10.4570    2.1120    3.7390 C   0  0  0  0  0  3  0  0  0  0  0  0
   10.2290    3.4520    4.0700 C   0  0  0  0  0  3  0  0  0  0  0  0
    9.3040    3.7840    5.0830 C   0  0  0  0  0  0  0  0  0  0  0  0
    8.8900    5.0250    5.6830 C   0  0  0  0  0  0  0  0  0  0  0  0
    7.9980    4.7050    6.7070 C   0  0  0  0  0  0  0  0  0  0  0  0
    7.7390    3.3470    6.6010 N   0  0  0  0  0  0  0  0  0  0  0  0
    8.5940    2.7500    5.6960 C   0  0  0  0  0  0  0  0  0  0  0  0
    8.7950    1.3950    5.3550 C   0  0  0  0  0  3  0  0  0  0  0  0
    6.6530    2.6790    7.3140 C   0  0  0  0  0  2  0  0  0  0  0  0
    5.3500    3.3510    7.0140 C   0  0  0  0  0  0  0  0  0  0  0  0
    5.0230    4.6170    7.3190 C   0  0  0  0  0  3  0  0  0  0  0  0
    5.9610    5.5340    7.9870 C   0  0  0  0  0  0  0  0  0  0  0  0
    5.4150    6.4200    8.9320 C   0  0  0  0  0  3  0  0  0  0  0  0
    6.2300    7.3070    9.6350 C   0  0  0  0  0  3  0  0  0  0  0  0
    7.6000    7.3130    9.4000 C   0  0  0  0  0  0  0  0  0  0  0  0
    8.6130    8.3930   10.2750 Cl  0  0  0  0  0  0  0  0  0  0  0  0
    8.1570    6.4520    8.4570 C   0  0  0  0  0  3  0  0  0  0  0  0
    7.3490    5.5700    7.7190 C   0  0  0  0  0  0  0  0  0  0  0  0
    4.3310    2.5190    6.3440 C   0  0  0  0  0  0  0  0  0  0  0  0
    3.5990    1.8180    7.0380 O   0  0  0  0  0  0  0  0  0  0  0  0
    9.7890   -2.2470    4.3000 H   0  0  0  0  0  0  0  0  0  0  0  0
    9.3420    6.4180    5.2880 C   0  0  0  0  0  3  0  0  0  0  0  0
   10.8340    6.6600    5.5680 C   0  0  0  0  0  2  0  0  0  0  0  0
   11.2490    8.0830    5.1970 C   0  0  0  0  0  2  0  0  0  0  0  0
   10.8900    8.4150    3.7510 C   0  0  0  0  0  2  0  0  0  0  0  0
    9.4080    8.1840    3.4710 C   0  0  0  0  0  2  0  0  0  0  0  0
    8.9810    6.7620    3.8320 C   0  0  0  0  0  2  0  0  0  0  0  0
  1  2  1  0  0  0  0
  2 34  1  0  0  0  0
  3  2  1  0  0  0  0
  4  3  1  0  0  0  0
  4  5  1  0  0  0  0
  6  7  1  0  0  0  0
  6  5  1  0  0  0  0
  7  8  1  0  0  0  0
  9 12  1  0  0  0  0
  9  7  1  0  0  0  0
 10  9  2  0  0  0  0
 11  9  2  0  0  0  0
 13 15  1  0  0  0  0
 13 12  1  0  0  0  0
 14 13  2  0  0  0  0
 15 23  1  0  0  0  0
 16 17  1  0  0  0  0
 16 15  2  0  0  0  0
 17 18  2  0  0  0  0
 18 19  1  0  0  0  0
 18 22  1  0  0  0  0
 19 20  2  0  0  0  0
 20 33  1  0  0  0  0
 21 20  1  0  0  0  0
 21 24  1  0  0  0  0
 22 21  1  0  0  0  0
 23 22  2  0  0  0  0
 25 24  1  0  0  0  0
 25 26  2  0  0  0  0
 26 27  1  0  0  0  0
 27 28  1  0  0  0  0
 28 29  2  0  0  0  0
 30 29  1  0  0  0  0
 30 31  1  0  0  0  0
 32 30  2  0  0  0  0
 33 27  2  0  0  0  0
 33 32  1  0  0  0  0
 34 25  1  0  0  0  0
 34 35  2  0  0  0  0
 36 12  1  0  0  0  0
 37 38  1  0  0  0  0
 37 19  1  0  0  0  0
 39 38  1  0  0  0  0
 40 39  1  0  0  0  0
 41 40  1  0  0  0  0
 41 42  1  0  0  0  0
 42 37  1  0  0  0  0
M  END
>  <minimizedAffinity>
-4.81463909

$$$$
