
 OpenBabel09092210413D

 42 47  0  0  0  0  0  0  0  0999 V2000
    6.3810   -3.9110    5.8610 C   0  0  0  0  0  1  0  0  0  0  0  0
    5.8210   -3.2170    7.0200 N   0  0  0  0  0  0  0  0  0  0  0  0
    6.5780   -3.3210    8.2670 C   0  0  0  0  0  2  0  0  0  0  0  0
    7.8120   -2.4120    8.2830 C   0  0  0  0  0  2  0  0  0  0  0  0
    7.4580   -0.9330    8.4710 C   0  0  0  0  0  2  0  0  0  0  0  0
    8.6960   -0.0400    8.4210 C   0  0  0  0  0  2  0  0  0  0  0  0
    8.7570    0.6640    7.0990 N   0  0  0  0  0  0  0  0  0  0  0  0
    8.4990    2.1140    7.2590 C   0  0  0  0  0  1  0  0  0  0  0  0
   10.1220    0.2560    6.1840 S   0  0  0  0  0  0  0  0  0  0  0  0
   11.2660    0.8470    6.8380 O   0  0  0  0  0  0  0  0  0  0  0  0
   10.0650   -1.1500    5.8780 O   0  0  0  0  0  0  0  0  0  0  0  0
    9.8700    1.1560    4.8050 N   0  0  0  0  0  0  0  0  0  0  0  0
    9.9040    0.5640    3.5290 C   0  0  0  0  0  0  0  0  0  0  0  0
   10.7580    0.9220    2.7320 O   0  0  0  0  0  0  0  0  0  0  0  0
    8.8130   -0.3690    3.1340 C   0  0  0  0  0  0  0  0  0  0  0  0
    9.0400   -1.1820    2.0230 C   0  0  0  0  0  3  0  0  0  0  0  0
    8.0250   -1.9990    1.5150 C   0  0  0  0  0  3  0  0  0  0  0  0
    6.7450   -1.9900    2.1080 C   0  0  0  0  0  0  0  0  0  0  0  0
    5.5040   -2.6520    1.8020 C   0  0  0  0  0  0  0  0  0  0  0  0
    4.5530   -2.1730    2.7050 C   0  0  0  0  0  0  0  0  0  0  0  0
    5.2370   -1.4040    3.6330 N   0  0  0  0  0  0  0  0  0  0  0  0
    6.5420   -1.1930    3.2350 C   0  0  0  0  0  0  0  0  0  0  0  0
    7.5640   -0.3810    3.7750 C   0  0  0  0  0  3  0  0  0  0  0  0
    4.6470   -0.9500    4.8900 C   0  0  0  0  0  2  0  0  0  0  0  0
    4.1180   -2.1170    5.6620 C   0  0  0  0  0  0  0  0  0  0  0  0
    3.1290   -2.9400    5.2770 C   0  0  0  0  0  3  0  0  0  0  0  0
    2.4420   -2.7930    3.9830 C   0  0  0  0  0  0  0  0  0  0  0  0
    1.0610   -3.0560    3.9660 C   0  0  0  0  0  3  0  0  0  0  0  0
    0.3210   -2.9180    2.7920 C   0  0  0  0  0  3  0  0  0  0  0  0
    0.9580   -2.5140    1.6240 C   0  0  0  0  0  0  0  0  0  0  0  0
    0.0480   -2.3260    0.1760 Cl  0  0  0  0  0  0  0  0  0  0  0  0
    2.3280   -2.2630    1.6190 C   0  0  0  0  0  3  0  0  0  0  0  0
    3.0950   -2.4220    2.7850 C   0  0  0  0  0  0  0  0  0  0  0  0
    4.7370   -2.3550    6.9820 C   0  0  0  0  0  0  0  0  0  0  0  0
    4.2950   -1.7470    7.9530 O   0  0  0  0  0  0  0  0  0  0  0  0
   10.5690    1.8970    4.8420 H   0  0  0  0  0  0  0  0  0  0  0  0
    5.2650   -3.6710    0.7030 C   0  0  0  0  0  3  0  0  0  0  0  0
    5.0780   -3.0210   -0.6770 C   0  0  0  0  0  2  0  0  0  0  0  0
    4.8010   -4.0690   -1.7550 C   0  0  0  0  0  2  0  0  0  0  0  0
    5.8830   -5.1450   -1.7850 C   0  0  0  0  0  2  0  0  0  0  0  0
    6.0660   -5.7970   -0.4190 C   0  0  0  0  0  2  0  0  0  0  0  0
    6.3500   -4.7610    0.6680 C   0  0  0  0  0  2  0  0  0  0  0  0
  1  2  1  0  0  0  0
  2  3  1  0  0  0  0
  3  4  1  0  0  0  0
  4  5  1  0  0  0  0
  6  5  1  0  0  0  0
  7  8  1  0  0  0  0
  7  6  1  0  0  0  0
  9 10  2  0  0  0  0
  9  7  1  0  0  0  0
 11  9  2  0  0  0  0
 12 36  1  0  0  0  0
 12  9  1  0  0  0  0
 13 12  1  0  0  0  0
 14 13  2  0  0  0  0
 15 13  1  0  0  0  0
 15 23  1  0  0  0  0
 16 15  2  0  0  0  0
 17 16  1  0  0  0  0
 17 18  2  0  0  0  0
 18 22  1  0  0  0  0
 19 18  1  0  0  0  0
 19 20  2  0  0  0  0
 20 33  1  0  0  0  0
 20 21  1  0  0  0  0
 21 24  1  0  0  0  0
 22 21  1  0  0  0  0
 22 23  2  0  0  0  0
 24 25  1  0  0  0  0
 25 34  1  0  0  0  0
 26 25  2  0  0  0  0
 27 26  1  0  0  0  0
 28 27  1  0  0  0  0
 29 28  2  0  0  0  0
 30 29  1  0  0  0  0
 31 30  1  0  0  0  0
 32 30  2  0  0  0  0
 32 33  1  0  0  0  0
 33 27  2  0  0  0  0
 34  2  1  0  0  0  0
 34 35  2  0  0  0  0
 37 19  1  0  0  0  0
 38 37  1  0  0  0  0
 39 38  1  0  0  0  0
 40 39  1  0  0  0  0
 40 41  1  0  0  0  0
 41 42  1  0  0  0  0
 42 37  1  0  0  0  0
M  END
>  <minimizedAffinity>
-4.34823799

$$$$
