
 OpenBabel09092210413D

 42 47  0  0  0  0  0  0  0  0999 V2000
    5.2560    0.9210    4.4880 C   0  0  0  0  0  1  0  0  0  0  0  0
    4.5760    0.3640    5.6560 N   0  0  0  0  0  0  0  0  0  0  0  0
    3.6340   -0.7240    5.4020 C   0  0  0  0  0  2  0  0  0  0  0  0
    4.3360   -2.0600    5.1360 C   0  0  0  0  0  2  0  0  0  0  0  0
    4.9160   -2.6900    6.4070 C   0  0  0  0  0  2  0  0  0  0  0  0
    5.6640   -3.9870    6.1110 C   0  0  0  0  0  2  0  0  0  0  0  0
    7.1420   -3.7410    6.1650 N   0  0  0  0  0  0  0  0  0  0  0  0
    7.7470   -4.4070    7.3420 C   0  0  0  0  0  1  0  0  0  0  0  0
    7.9220   -4.0100    4.6860 S   0  0  0  0  0  0  0  0  0  0  0  0
    7.9110   -5.4350    4.4520 O   0  0  0  0  0  0  0  0  0  0  0  0
    7.4030   -3.0780    3.7190 O   0  0  0  0  0  0  0  0  0  0  0  0
    9.4950   -3.6220    5.0720 N   0  0  0  0  0  0  0  0  0  0  0  0
   10.2290   -2.6980    4.3080 C   0  0  0  0  0  0  0  0  0  0  0  0
   11.2330   -3.0780    3.7220 O   0  0  0  0  0  0  0  0  0  0  0  0
    9.8520   -1.2590    4.3530 C   0  0  0  0  0  0  0  0  0  0  0  0
   10.3670   -0.4330    3.3530 C   0  0  0  0  0  3  0  0  0  0  0  0
   10.1590    0.9490    3.3870 C   0  0  0  0  0  3  0  0  0  0  0  0
    9.4440    1.5310    4.4560 C   0  0  0  0  0  0  0  0  0  0  0  0
    9.1120    2.8860    4.8090 C   0  0  0  0  0  0  0  0  0  0  0  0
    8.4560    2.8390    6.0390 C   0  0  0  0  0  0  0  0  0  0  0  0
    8.2330    1.5000    6.3210 N   0  0  0  0  0  0  0  0  0  0  0  0
    8.9110    0.6880    5.4340 C   0  0  0  0  0  0  0  0  0  0  0  0
    9.0910   -0.7120    5.3980 C   0  0  0  0  0  3  0  0  0  0  0  0
    7.3380    1.0400    7.3810 C   0  0  0  0  0  2  0  0  0  0  0  0
    5.9770    1.6340    7.1990 C   0  0  0  0  0  0  0  0  0  0  0  0
    5.6700    2.9410    7.2470 C   0  0  0  0  0  3  0  0  0  0  0  0
    6.6870    3.9810    7.4680 C   0  0  0  0  0  0  0  0  0  0  0  0
    6.3080    5.0790    8.2600 C   0  0  0  0  0  3  0  0  0  0  0  0
    7.2130    6.1020    8.5450 C   0  0  0  0  0  3  0  0  0  0  0  0
    8.5060    6.0330    8.0410 C   0  0  0  0  0  0  0  0  0  0  0  0
    9.6320    7.2820    8.4030 Cl  0  0  0  0  0  0  0  0  0  0  0  0
    8.8960    4.9600    7.2430 C   0  0  0  0  0  3  0  0  0  0  0  0
    7.9910    3.9340    6.9220 C   0  0  0  0  0  0  0  0  0  0  0  0
    4.8770    0.6760    6.9730 C   0  0  0  0  0  0  0  0  0  0  0  0
    4.3270    0.1760    7.9510 O   0  0  0  0  0  0  0  0  0  0  0  0
    9.9920   -4.5130    5.0780 H   0  0  0  0  0  0  0  0  0  0  0  0
    9.4210    4.1350    4.0040 C   0  0  0  0  0  3  0  0  0  0  0  0
    8.1890    5.0320    3.8030 C   0  0  0  0  0  2  0  0  0  0  0  0
    8.5240    6.2600    2.9570 C   0  0  0  0  0  2  0  0  0  0  0  0
    9.6970    7.0430    3.5410 C   0  0  0  0  0  2  0  0  0  0  0  0
   10.9240    6.1570    3.7340 C   0  0  0  0  0  2  0  0  0  0  0  0
   10.6050    4.9280    4.5830 C   0  0  0  0  0  2  0  0  0  0  0  0
  1  2  1  0  0  0  0
  2 34  1  0  0  0  0
  3  2  1  0  0  0  0
  4  3  1  0  0  0  0
  4  5  1  0  0  0  0
  6  7  1  0  0  0  0
  6  5  1  0  0  0  0
  7  8  1  0  0  0  0
  9 12  1  0  0  0  0
  9  7  1  0  0  0  0
 10  9  2  0  0  0  0
 11  9  2  0  0  0  0
 12 36  1  0  0  0  0
 13 15  1  0  0  0  0
 13 12  1  0  0  0  0
 14 13  2  0  0  0  0
 15 23  1  0  0  0  0
 16 17  1  0  0  0  0
 16 15  2  0  0  0  0
 17 18  2  0  0  0  0
 18 19  1  0  0  0  0
 18 22  1  0  0  0  0
 19 20  2  0  0  0  0
 20 21  1  0  0  0  0
 20 33  1  0  0  0  0
 21 24  1  0  0  0  0
 22 21  1  0  0  0  0
 23 22  2  0  0  0  0
 25 26  2  0  0  0  0
 25 24  1  0  0  0  0
 26 27  1  0  0  0  0
 27 28  1  0  0  0  0
 28 29  2  0  0  0  0
 30 31  1  0  0  0  0
 30 29  1  0  0  0  0
 32 30  2  0  0  0  0
 33 32  1  0  0  0  0
 33 27  2  0  0  0  0
 34 25  1  0  0  0  0
 34 35  2  0  0  0  0
 37 42  1  0  0  0  0
 37 19  1  0  0  0  0
 38 37  1  0  0  0  0
 39 40  1  0  0  0  0
 39 38  1  0  0  0  0
 40 41  1  0  0  0  0
 41 42  1  0  0  0  0
M  END
>  <minimizedAffinity>
-4.39313507

$$$$
