
 OpenBabel09092210413D

 42 47  0  0  0  0  0  0  0  0999 V2000
    4.5610   -4.9590    1.6900 C   0  0  0  0  0  1  0  0  0  0  0  0
    4.6010   -4.5810    0.2770 N   0  0  0  0  0  0  0  0  0  0  0  0
    3.9030   -5.4670   -0.6520 C   0  0  0  0  0  2  0  0  0  0  0  0
    2.3820   -5.2770   -0.6150 C   0  0  0  0  0  2  0  0  0  0  0  0
    1.9270   -3.9860   -1.3040 C   0  0  0  0  0  2  0  0  0  0  0  0
    0.4170   -3.7860   -1.2000 C   0  0  0  0  0  2  0  0  0  0  0  0
    0.1160   -2.7430   -0.1660 N   0  0  0  0  0  0  0  0  0  0  0  0
   -0.4040   -1.5080   -0.7960 C   0  0  0  0  0  1  0  0  0  0  0  0
   -0.7800   -3.3350    1.1430 S   0  0  0  0  0  0  0  0  0  0  0  0
   -2.1140   -3.6040    0.6600 O   0  0  0  0  0  0  0  0  0  0  0  0
    0.0010   -4.3420    1.8150 O   0  0  0  0  0  0  0  0  0  0  0  0
   -0.9060   -1.9740    2.0950 N   0  0  0  0  0  0  0  0  0  0  0  0
   -0.5350   -1.9930    3.4510 C   0  0  0  0  0  0  0  0  0  0  0  0
   -1.3870   -1.7800    4.3020 O   0  0  0  0  0  0  0  0  0  0  0  0
    0.9050   -2.1230    3.8070 C   0  0  0  0  0  0  0  0  0  0  0  0
    1.2070   -2.4690    5.1240 C   0  0  0  0  0  3  0  0  0  0  0  0
    2.5320   -2.4970    5.5720 C   0  0  0  0  0  3  0  0  0  0  0  0
    3.5820   -2.1470    4.6970 C   0  0  0  0  0  0  0  0  0  0  0  0
    5.0080   -2.0230    4.8540 C   0  0  0  0  0  0  0  0  0  0  0  0
    5.5120   -1.5520    3.6410 C   0  0  0  0  0  0  0  0  0  0  0  0
    4.4630   -1.5740    2.7360 N   0  0  0  0  0  0  0  0  0  0  0  0
    3.2650   -1.8300    3.3740 C   0  0  0  0  0  0  0  0  0  0  0  0
    1.9350   -1.8220    2.9020 C   0  0  0  0  0  3  0  0  0  0  0  0
    4.6420   -1.4150    1.2950 C   0  0  0  0  0  2  0  0  0  0  0  0
    5.6220   -2.4230    0.7830 C   0  0  0  0  0  0  0  0  0  0  0  0
    6.9180   -2.5120    1.1250 C   0  0  0  0  0  3  0  0  0  0  0  0
    7.5390   -1.6040    2.1030 C   0  0  0  0  0  0  0  0  0  0  0  0
    8.8610   -1.2020    1.8430 C   0  0  0  0  0  3  0  0  0  0  0  0
    9.5220   -0.3230    2.7010 C   0  0  0  0  0  3  0  0  0  0  0  0
    8.8640    0.1640    3.8250 C   0  0  0  0  0  0  0  0  0  0  0  0
    9.6680    1.2610    4.8770 Cl  0  0  0  0  0  0  0  0  0  0  0  0
    7.5590   -0.2350    4.1060 C   0  0  0  0  0  3  0  0  0  0  0  0
    6.8860   -1.1410    3.2690 C   0  0  0  0  0  0  0  0  0  0  0  0
    5.1040   -3.3850   -0.2100 C   0  0  0  0  0  0  0  0  0  0  0  0
    5.1010   -3.0580   -1.3940 O   0  0  0  0  0  0  0  0  0  0  0  0
   -1.8830   -1.6920    2.0250 H   0  0  0  0  0  0  0  0  0  0  0  0
    5.8130   -2.3360    6.1010 C   0  0  0  0  0  3  0  0  0  0  0  0
    5.4880   -1.3920    7.2700 C   0  0  0  0  0  2  0  0  0  0  0  0
    6.3420   -1.7070    8.4970 C   0  0  0  0  0  2  0  0  0  0  0  0
    6.2160   -3.1720    8.9090 C   0  0  0  0  0  2  0  0  0  0  0  0
    6.5460   -4.1120    7.7540 C   0  0  0  0  0  2  0  0  0  0  0  0
    5.6950   -3.8120    6.5220 C   0  0  0  0  0  2  0  0  0  0  0  0
  2  1  1  0  0  0  0
  3  4  1  0  0  0  0
  3  2  1  0  0  0  0
  5  6  1  0  0  0  0
  5  4  1  0  0  0  0
  6  7  1  0  0  0  0
  7  9  1  0  0  0  0
  8  7  1  0  0  0  0
  9 11  2  0  0  0  0
  9 12  1  0  0  0  0
 10  9  2  0  0  0  0
 12 13  1  0  0  0  0
 13 15  1  0  0  0  0
 13 14  2  0  0  0  0
 15 16  1  0  0  0  0
 16 17  2  0  0  0  0
 18 19  1  0  0  0  0
 18 17  1  0  0  0  0
 19 37  1  0  0  0  0
 20 19  2  0  0  0  0
 21 22  1  0  0  0  0
 21 20  1  0  0  0  0
 22 18  2  0  0  0  0
 23 22  1  0  0  0  0
 23 15  2  0  0  0  0
 24 21  1  0  0  0  0
 25 26  2  0  0  0  0
 25 24  1  0  0  0  0
 26 27  1  0  0  0  0
 27 33  1  0  0  0  0
 28 27  2  0  0  0  0
 28 29  1  0  0  0  0
 29 30  2  0  0  0  0
 30 32  1  0  0  0  0
 30 31  1  0  0  0  0
 33 20  1  0  0  0  0
 33 32  2  0  0  0  0
 34  2  1  0  0  0  0
 34 25  1  0  0  0  0
 35 34  2  0  0  0  0
 36 12  1  0  0  0  0
 37 42  1  0  0  0  0
 37 38  1  0  0  0  0
 38 39  1  0  0  0  0
 39 40  1  0  0  0  0
 41 40  1  0  0  0  0
 42 41  1  0  0  0  0
M  END
>  <minimizedAffinity>
-4.25529099

$$$$
