
 OpenBabel09092210413D

 42 47  0  0  0  0  0  0  0  0999 V2000
    6.8270    3.1830    7.9710 C   0  0  0  0  0  1  0  0  0  0  0  0
    5.5620    3.9130    7.8940 N   0  0  0  0  0  0  0  0  0  0  0  0
    5.4290    5.0760    8.7680 C   0  0  0  0  0  2  0  0  0  0  0  0
    6.1970    6.2950    8.2450 C   0  0  0  0  0  2  0  0  0  0  0  0
    5.5120    6.9590    7.0460 C   0  0  0  0  0  2  0  0  0  0  0  0
    6.3260    8.1310    6.5020 C   0  0  0  0  0  2  0  0  0  0  0  0
    7.0180    7.7210    5.2370 N   0  0  0  0  0  0  0  0  0  0  0  0
    6.4310    8.4100    4.0650 C   0  0  0  0  0  1  0  0  0  0  0  0
    8.7070    7.7720    5.3510 S   0  0  0  0  0  0  0  0  0  0  0  0
    9.0890    9.1640    5.4090 O   0  0  0  0  0  0  0  0  0  0  0  0
    9.1270    6.8270    6.3540 O   0  0  0  0  0  0  0  0  0  0  0  0
    9.1510    7.2400    3.8360 N   0  0  0  0  0  0  0  0  0  0  0  0
   10.0560    6.1750    3.6710 C   0  0  0  0  0  0  0  0  0  0  0  0
   11.1240    6.3850    3.1140 O   0  0  0  0  0  0  0  0  0  0  0  0
    9.6290    4.7980    4.0430 C   0  0  0  0  0  0  0  0  0  0  0  0
   10.6310    3.8370    4.1840 C   0  0  0  0  0  3  0  0  0  0  0  0
   10.3090    2.4960    4.4150 C   0  0  0  0  0  3  0  0  0  0  0  0
    8.9580    2.0930    4.4820 C   0  0  0  0  0  0  0  0  0  0  0  0
    8.3070    0.8200    4.6470 C   0  0  0  0  0  0  0  0  0  0  0  0
    6.9340    1.0470    4.5430 C   0  0  0  0  0  0  0  0  0  0  0  0
    6.7590    2.4220    4.5110 N   0  0  0  0  0  0  0  0  0  0  0  0
    7.9680    3.0720    4.3670 C   0  0  0  0  0  0  0  0  0  0  0  0
    8.2790    4.4330    4.1590 C   0  0  0  0  0  3  0  0  0  0  0  0
    5.4600    3.0700    4.6790 C   0  0  0  0  0  2  0  0  0  0  0  0
    4.8240    2.6240    5.9580 C   0  0  0  0  0  0  0  0  0  0  0  0
    4.4490    1.3700    6.2610 C   0  0  0  0  0  3  0  0  0  0  0  0
    4.6550    0.2420    5.3400 C   0  0  0  0  0  0  0  0  0  0  0  0
    3.6440   -0.7340    5.2960 C   0  0  0  0  0  3  0  0  0  0  0  0
    3.7400   -1.8260    4.4340 C   0  0  0  0  0  3  0  0  0  0  0  0
    4.8490   -1.9500    3.6060 C   0  0  0  0  0  0  0  0  0  0  0  0
    4.9660   -3.2860    2.5280 Cl  0  0  0  0  0  0  0  0  0  0  0  0
    5.8680   -1.0010    3.6450 C   0  0  0  0  0  3  0  0  0  0  0  0
    5.8030    0.0920    4.5260 C   0  0  0  0  0  0  0  0  0  0  0  0
    4.5680    3.6800    6.9570 C   0  0  0  0  0  0  0  0  0  0  0  0
    3.5230    4.3220    6.8750 O   0  0  0  0  0  0  0  0  0  0  0  0
    9.5240    8.0640    3.3660 H   0  0  0  0  0  0  0  0  0  0  0  0
    8.9810   -0.5200    4.8800 C   0  0  0  0  0  3  0  0  0  0  0  0
    9.8880   -0.9390    3.7120 C   0  0  0  0  0  2  0  0  0  0  0  0
   10.5200   -2.3080    3.9590 C   0  0  0  0  0  2  0  0  0  0  0  0
   11.2660   -2.3510    5.2900 C   0  0  0  0  0  2  0  0  0  0  0  0
   10.3660   -1.9440    6.4520 C   0  0  0  0  0  2  0  0  0  0  0  0
    9.7320   -0.5730    6.2220 C   0  0  0  0  0  2  0  0  0  0  0  0
  2  1  1  0  0  0  0
  2  3  1  0  0  0  0
  4  3  1  0  0  0  0
  5  4  1  0  0  0  0
  6  5  1  0  0  0  0
  7  9  1  0  0  0  0
  7  6  1  0  0  0  0
  8  7  1  0  0  0  0
  9 10  2  0  0  0  0
  9 11  2  0  0  0  0
 12  9  1  0  0  0  0
 13 12  1  0  0  0  0
 13 15  1  0  0  0  0
 14 13  2  0  0  0  0
 15 23  2  0  0  0  0
 15 16  1  0  0  0  0
 16 17  2  0  0  0  0
 17 18  1  0  0  0  0
 18 19  1  0  0  0  0
 19 37  1  0  0  0  0
 20 19  2  0  0  0  0
 21 20  1  0  0  0  0
 21 24  1  0  0  0  0
 22 18  2  0  0  0  0
 22 21  1  0  0  0  0
 23 22  1  0  0  0  0
 24 25  1  0  0  0  0
 25 26  2  0  0  0  0
 25 34  1  0  0  0  0
 27 26  1  0  0  0  0
 28 27  1  0  0  0  0
 29 28  2  0  0  0  0
 30 32  2  0  0  0  0
 30 29  1  0  0  0  0
 31 30  1  0  0  0  0
 32 33  1  0  0  0  0
 33 20  1  0  0  0  0
 33 27  2  0  0  0  0
 34  2  1  0  0  0  0
 35 34  2  0  0  0  0
 36 12  1  0  0  0  0
 37 42  1  0  0  0  0
 38 39  1  0  0  0  0
 38 37  1  0  0  0  0
 39 40  1  0  0  0  0
 40 41  1  0  0  0  0
 42 41  1  0  0  0  0
M  END
>  <minimizedAffinity>
-5.09931993

$$$$
