
 OpenBabel09092210413D

 42 47  0  0  0  0  0  0  0  0999 V2000
    5.1600    1.6860    6.1740 C   0  0  0  0  0  1  0  0  0  0  0  0
    4.9780    0.3650    6.7730 N   0  0  0  0  0  0  0  0  0  0  0  0
    4.2210   -0.6070    5.9860 C   0  0  0  0  0  2  0  0  0  0  0  0
    5.0460   -1.2070    4.8420 C   0  0  0  0  0  2  0  0  0  0  0  0
    6.0870   -2.2210    5.3290 C   0  0  0  0  0  2  0  0  0  0  0  0
    6.9390   -2.7590    4.1820 C   0  0  0  0  0  2  0  0  0  0  0  0
    8.2920   -2.1150    4.2130 N   0  0  0  0  0  0  0  0  0  0  0  0
    9.3350   -3.0920    4.6020 C   0  0  0  0  0  1  0  0  0  0  0  0
    8.6280   -1.1910    2.8340 S   0  0  0  0  0  0  0  0  0  0  0  0
    8.8120   -2.1130    1.7380 O   0  0  0  0  0  0  0  0  0  0  0  0
    7.6790   -0.1100    2.7650 O   0  0  0  0  0  0  0  0  0  0  0  0
   10.1440   -0.6040    3.1960 N   0  0  0  0  0  0  0  0  0  0  0  0
   10.4310    0.7710    3.1330 C   0  0  0  0  0  0  0  0  0  0  0  0
   11.2650    1.1670    2.3310 O   0  0  0  0  0  0  0  0  0  0  0  0
    9.8240    1.6850    4.1390 C   0  0  0  0  0  0  0  0  0  0  0  0
    9.8520    3.0520    3.8590 C   0  0  0  0  0  3  0  0  0  0  0  0
    9.4120    3.9860    4.8020 C   0  0  0  0  0  3  0  0  0  0  0  0
    8.9550    3.5540    6.0660 C   0  0  0  0  0  0  0  0  0  0  0  0
    8.4990    4.2420    7.2450 C   0  0  0  0  0  0  0  0  0  0  0  0
    8.2640    3.2690    8.2180 C   0  0  0  0  0  0  0  0  0  0  0  0
    8.3880    2.0390    7.5920 N   0  0  0  0  0  0  0  0  0  0  0  0
    8.9070    2.1820    6.3200 C   0  0  0  0  0  0  0  0  0  0  0  0
    9.3240    1.2270    5.3680 C   0  0  0  0  0  3  0  0  0  0  0  0
    7.9540    0.7820    8.1970 C   0  0  0  0  0  2  0  0  0  0  0  0
    6.5160    0.8740    8.5980 C   0  0  0  0  0  0  0  0  0  0  0  0
    6.0000    1.7100    9.5140 C   0  0  0  0  0  3  0  0  0  0  0  0
    6.8250    2.6920   10.2370 C   0  0  0  0  0  0  0  0  0  0  0  0
    6.5050    2.9160   11.5870 C   0  0  0  0  0  3  0  0  0  0  0  0
    7.2480    3.8090   12.3590 C   0  0  0  0  0  3  0  0  0  0  0  0
    8.3190    4.4840   11.7870 C   0  0  0  0  0  0  0  0  0  0  0  0
    9.2500    5.5740   12.7390 Cl  0  0  0  0  0  0  0  0  0  0  0  0
    8.6430    4.2850   10.4470 C   0  0  0  0  0  3  0  0  0  0  0  0
    7.8900    3.4100    9.6450 C   0  0  0  0  0  0  0  0  0  0  0  0
    5.5960   -0.0710    7.9340 C   0  0  0  0  0  0  0  0  0  0  0  0
    5.4680   -1.1960    8.4120 O   0  0  0  0  0  0  0  0  0  0  0  0
   10.7760   -1.1010    2.5690 H   0  0  0  0  0  0  0  0  0  0  0  0
    8.3150    5.7390    7.4090 C   0  0  0  0  0  3  0  0  0  0  0  0
    9.6500    6.4990    7.4520 C   0  0  0  0  0  2  0  0  0  0  0  0
    9.4340    7.9980    7.6560 C   0  0  0  0  0  2  0  0  0  0  0  0
    8.4930    8.5790    6.6050 C   0  0  0  0  0  2  0  0  0  0  0  0
    7.1630    7.8320    6.5650 C   0  0  0  0  0  2  0  0  0  0  0  0
    7.3650    6.3320    6.3550 C   0  0  0  0  0  2  0  0  0  0  0  0
  1  2  1  0  0  0  0
  2 34  1  0  0  0  0
  3  2  1  0  0  0  0
  4  5  1  0  0  0  0
  4  3  1  0  0  0  0
  6  7  1  0  0  0  0
  6  5  1  0  0  0  0
  7  8  1  0  0  0  0
  9 12  1  0  0  0  0
  9  7  1  0  0  0  0
 10  9  2  0  0  0  0
 11  9  2  0  0  0  0
 13 12  1  0  0  0  0
 13 15  1  0  0  0  0
 14 13  2  0  0  0  0
 15 23  1  0  0  0  0
 16 15  2  0  0  0  0
 16 17  1  0  0  0  0
 17 18  2  0  0  0  0
 18 22  1  0  0  0  0
 18 19  1  0  0  0  0
 19 37  1  0  0  0  0
 19 20  2  0  0  0  0
 20 33  1  0  0  0  0
 21 24  1  0  0  0  0
 21 20  1  0  0  0  0
 22 21  1  0  0  0  0
 23 22  2  0  0  0  0
 24 25  1  0  0  0  0
 25 26  2  0  0  0  0
 26 27  1  0  0  0  0
 27 28  1  0  0  0  0
 28 29  2  0  0  0  0
 30 29  1  0  0  0  0
 30 31  1  0  0  0  0
 32 30  2  0  0  0  0
 33 27  2  0  0  0  0
 33 32  1  0  0  0  0
 34 35  2  0  0  0  0
 34 25  1  0  0  0  0
 36 12  1  0  0  0  0
 37 38  1  0  0  0  0
 38 39  1  0  0  0  0
 40 39  1  0  0  0  0
 41 40  1  0  0  0  0
 42 41  1  0  0  0  0
 42 37  1  0  0  0  0
M  END
>  <minimizedAffinity>
-4.01430416

$$$$
