
 OpenBabel09092210413D

 42 47  0  0  0  0  0  0  0  0999 V2000
    8.5060   -1.1840    6.9680 C   0  0  0  0  0  1  0  0  0  0  0  0
    9.4870   -1.9000    6.1530 N   0  0  0  0  0  0  0  0  0  0  0  0
    9.7220   -3.3000    6.5010 C   0  0  0  0  0  2  0  0  0  0  0  0
    8.6010   -4.2230    6.0140 C   0  0  0  0  0  2  0  0  0  0  0  0
    8.6410   -4.4600    4.5010 C   0  0  0  0  0  2  0  0  0  0  0  0
    7.4790   -5.3310    4.0280 C   0  0  0  0  0  2  0  0  0  0  0  0
    6.4470   -4.4750    3.3580 N   0  0  0  0  0  0  0  0  0  0  0  0
    6.4050   -4.7400    1.9010 C   0  0  0  0  0  1  0  0  0  0  0  0
    4.9510   -4.4830    4.1500 S   0  0  0  0  0  0  0  0  0  0  0  0
    4.3670   -5.7880    3.9480 O   0  0  0  0  0  0  0  0  0  0  0  0
    5.1270   -3.9270    5.4670 O   0  0  0  0  0  0  0  0  0  0  0  0
    4.0720   -3.4370    3.1970 N   0  0  0  0  0  0  0  0  0  0  0  0
    3.3880   -2.3400    3.7520 C   0  0  0  0  0  0  0  0  0  0  0  0
    2.1700   -2.2930    3.6620 O   0  0  0  0  0  0  0  0  0  0  0  0
    4.1720   -1.2000    4.3010 C   0  0  0  0  0  0  0  0  0  0  0  0
    3.4980   -0.3020    5.1280 C   0  0  0  0  0  3  0  0  0  0  0  0
    4.1270    0.8590    5.5890 C   0  0  0  0  0  3  0  0  0  0  0  0
    5.4520    1.1500    5.1970 C   0  0  0  0  0  0  0  0  0  0  0  0
    6.3410    2.2540    5.4430 C   0  0  0  0  0  0  0  0  0  0  0  0
    7.5040    2.0120    4.7100 C   0  0  0  0  0  0  0  0  0  0  0  0
    7.3940    0.7280    4.1990 N   0  0  0  0  0  0  0  0  0  0  0  0
    6.1220    0.2270    4.3920 C   0  0  0  0  0  0  0  0  0  0  0  0
    5.5080   -0.9620    3.9400 C   0  0  0  0  0  3  0  0  0  0  0  0
    8.5140    0.0020    3.6050 C   0  0  0  0  0  2  0  0  0  0  0  0
    9.6590   -0.0540    4.5660 C   0  0  0  0  0  0  0  0  0  0  0  0
   10.3480    0.9960    5.0400 C   0  0  0  0  0  3  0  0  0  0  0  0
   10.0210    2.3830    4.6720 C   0  0  0  0  0  0  0  0  0  0  0  0
   11.1030    3.2640    4.4990 C   0  0  0  0  0  3  0  0  0  0  0  0
   10.8920    4.5910    4.1250 C   0  0  0  0  0  3  0  0  0  0  0  0
    9.5950    5.0470    3.9180 C   0  0  0  0  0  0  0  0  0  0  0  0
    9.3290    6.6780    3.4410 Cl  0  0  0  0  0  0  0  0  0  0  0  0
    8.5100    4.1930    4.0980 C   0  0  0  0  0  3  0  0  0  0  0  0
    8.7000    2.8600    4.5020 C   0  0  0  0  0  0  0  0  0  0  0  0
   10.0740   -1.4030    5.0010 C   0  0  0  0  0  0  0  0  0  0  0  0
   10.8700   -2.0240    4.3000 O   0  0  0  0  0  0  0  0  0  0  0  0
    3.4010   -4.0280    2.7060 H   0  0  0  0  0  0  0  0  0  0  0  0
    6.0690    3.4590    6.3240 C   0  0  0  0  0  3  0  0  0  0  0  0
    4.9510    4.3570    5.7720 C   0  0  0  0  0  2  0  0  0  0  0  0
    4.7280    5.5810    6.6590 C   0  0  0  0  0  2  0  0  0  0  0  0
    4.4620    5.1840    8.1090 C   0  0  0  0  0  2  0  0  0  0  0  0
    5.5740    4.2990    8.6630 C   0  0  0  0  0  2  0  0  0  0  0  0
    5.8040    3.0680    7.7880 C   0  0  0  0  0  2  0  0  0  0  0  0
  2  3  1  0  0  0  0
  2  1  1  0  0  0  0
  4  3  1  0  0  0  0
  5  4  1  0  0  0  0
  6  5  1  0  0  0  0
  7  6  1  0  0  0  0
  7  9  1  0  0  0  0
  8  7  1  0  0  0  0
  9 11  2  0  0  0  0
 10  9  2  0  0  0  0
 12 13  1  0  0  0  0
 12  9  1  0  0  0  0
 13 15  1  0  0  0  0
 14 13  2  0  0  0  0
 15 16  1  0  0  0  0
 16 17  2  0  0  0  0
 18 19  1  0  0  0  0
 18 17  1  0  0  0  0
 19 37  1  0  0  0  0
 20 19  2  0  0  0  0
 21 22  1  0  0  0  0
 21 20  1  0  0  0  0
 22 18  2  0  0  0  0
 23 15  2  0  0  0  0
 23 22  1  0  0  0  0
 24 21  1  0  0  0  0
 24 25  1  0  0  0  0
 25 34  1  0  0  0  0
 25 26  2  0  0  0  0
 27 26  1  0  0  0  0
 28 27  2  0  0  0  0
 29 28  1  0  0  0  0
 30 32  1  0  0  0  0
 30 29  2  0  0  0  0
 31 30  1  0  0  0  0
 32 33  2  0  0  0  0
 33 27  1  0  0  0  0
 33 20  1  0  0  0  0
 34  2  1  0  0  0  0
 35 34  2  0  0  0  0
 36 12  1  0  0  0  0
 37 42  1  0  0  0  0
 38 37  1  0  0  0  0
 38 39  1  0  0  0  0
 39 40  1  0  0  0  0
 40 41  1  0  0  0  0
 42 41  1  0  0  0  0
M  END
>  <minimizedAffinity>
-4.35128355

$$$$
