
 OpenBabel09092210413D

 42 47  0  0  0  0  0  0  0  0999 V2000
    7.6140   -3.2680    6.1800 C   0  0  0  0  0  1  0  0  0  0  0  0
    8.7260   -4.0250    5.6060 N   0  0  0  0  0  0  0  0  0  0  0  0
    8.7170   -5.4680    5.8360 C   0  0  0  0  0  2  0  0  0  0  0  0
    7.7170   -6.2000    4.9350 C   0  0  0  0  0  2  0  0  0  0  0  0
    8.1920   -6.3060    3.4820 C   0  0  0  0  0  2  0  0  0  0  0  0
    7.1540   -6.9820    2.5900 C   0  0  0  0  0  2  0  0  0  0  0  0
    6.4560   -5.9500    1.7560 N   0  0  0  0  0  0  0  0  0  0  0  0
    6.8340   -6.0790    0.3290 C   0  0  0  0  0  1  0  0  0  0  0  0
    4.7960   -5.8430    2.0700 S   0  0  0  0  0  0  0  0  0  0  0  0
    4.1850   -7.0440    1.5500 O   0  0  0  0  0  0  0  0  0  0  0  0
    4.6150   -5.4310    3.4390 O   0  0  0  0  0  0  0  0  0  0  0  0
    4.3460   -4.6170    1.0360 N   0  0  0  0  0  0  0  0  0  0  0  0
    3.6290   -3.4980    1.4960 C   0  0  0  0  0  0  0  0  0  0  0  0
    2.5060   -3.2940    1.0610 O   0  0  0  0  0  0  0  0  0  0  0  0
    4.3110   -2.5160    2.3830 C   0  0  0  0  0  0  0  0  0  0  0  0
    3.5020   -1.6180    3.0800 C   0  0  0  0  0  3  0  0  0  0  0  0
    4.0650   -0.5880    3.8410 C   0  0  0  0  0  3  0  0  0  0  0  0
    5.4670   -0.4300    3.8910 C   0  0  0  0  0  0  0  0  0  0  0  0
    6.3360    0.5310    4.5170 C   0  0  0  0  0  0  0  0  0  0  0  0
    7.6390    0.2140    4.1310 C   0  0  0  0  0  0  0  0  0  0  0  0
    7.5730   -0.9970    3.4600 N   0  0  0  0  0  0  0  0  0  0  0  0
    6.2630   -1.3530    3.2110 C   0  0  0  0  0  0  0  0  0  0  0  0
    5.7090   -2.4130    2.4590 C   0  0  0  0  0  3  0  0  0  0  0  0
    8.7490   -1.8000    3.1340 C   0  0  0  0  0  2  0  0  0  0  0  0
    9.5390   -2.0820    4.3730 C   0  0  0  0  0  0  0  0  0  0  0  0
   10.1440   -1.1700    5.1510 C   0  0  0  0  0  3  0  0  0  0  0  0
   10.0720    0.2740    4.8750 C   0  0  0  0  0  0  0  0  0  0  0  0
   11.2310    1.0270    5.1330 C   0  0  0  0  0  3  0  0  0  0  0  0
   11.2650    2.3980    4.8770 C   0  0  0  0  0  3  0  0  0  0  0  0
   10.1390    3.0260    4.3570 C   0  0  0  0  0  0  0  0  0  0  0  0
   10.1800    4.7130    4.0230 Cl  0  0  0  0  0  0  0  0  0  0  0  0
    8.9780    2.2990    4.1080 C   0  0  0  0  0  3  0  0  0  0  0  0
    8.9140    0.9230    4.3850 C   0  0  0  0  0  0  0  0  0  0  0  0
    9.6780   -3.5040    4.7440 C   0  0  0  0  0  0  0  0  0  0  0  0
   10.5890   -4.1550    4.2360 O   0  0  0  0  0  0  0  0  0  0  0  0
    3.8050   -5.0760    0.3030 H   0  0  0  0  0  0  0  0  0  0  0  0
    5.9210    1.6780    5.4190 C   0  0  0  0  0  3  0  0  0  0  0  0
    5.0990    2.7460    4.6810 C   0  0  0  0  0  2  0  0  0  0  0  0
    4.7300    3.9050    5.6050 C   0  0  0  0  0  2  0  0  0  0  0  0
    4.0130    3.4170    6.8610 C   0  0  0  0  0  2  0  0  0  0  0  0
    4.8300    2.3630    7.6020 C   0  0  0  0  0  2  0  0  0  0  0  0
    5.2010    1.1940    6.6900 C   0  0  0  0  0  2  0  0  0  0  0  0
  2  3  1  0  0  0  0
  2  1  1  0  0  0  0
  4  3  1  0  0  0  0
  5  4  1  0  0  0  0
  6  5  1  0  0  0  0
  7  9  1  0  0  0  0
  7  6  1  0  0  0  0
  8  7  1  0  0  0  0
  9 11  2  0  0  0  0
 10  9  2  0  0  0  0
 12 13  1  0  0  0  0
 12  9  1  0  0  0  0
 13 15  1  0  0  0  0
 14 13  2  0  0  0  0
 15 23  2  0  0  0  0
 15 16  1  0  0  0  0
 16 17  2  0  0  0  0
 17 18  1  0  0  0  0
 18 19  1  0  0  0  0
 19 37  1  0  0  0  0
 20 33  1  0  0  0  0
 20 19  2  0  0  0  0
 21 20  1  0  0  0  0
 22 21  1  0  0  0  0
 22 18  2  0  0  0  0
 23 22  1  0  0  0  0
 24 21  1  0  0  0  0
 24 25  1  0  0  0  0
 25 34  1  0  0  0  0
 25 26  2  0  0  0  0
 27 28  1  0  0  0  0
 27 26  1  0  0  0  0
 29 28  2  0  0  0  0
 30 29  1  0  0  0  0
 31 30  1  0  0  0  0
 32 30  2  0  0  0  0
 32 33  1  0  0  0  0
 33 27  2  0  0  0  0
 34  2  1  0  0  0  0
 35 34  2  0  0  0  0
 36 12  1  0  0  0  0
 37 42  1  0  0  0  0
 38 37  1  0  0  0  0
 38 39  1  0  0  0  0
 39 40  1  0  0  0  0
 40 41  1  0  0  0  0
 42 41  1  0  0  0  0
M  END
>  <minimizedAffinity>
-4.35864258

$$$$
