
 OpenBabel09092210413D

 42 47  0  0  0  0  0  0  0  0999 V2000
    5.6670    4.6220    7.7330 C   0  0  0  0  0  1  0  0  0  0  0  0
    4.6880    5.6790    7.4820 N   0  0  0  0  0  0  0  0  0  0  0  0
    4.8560    6.9150    8.2450 C   0  0  0  0  0  2  0  0  0  0  0  0
    5.9870    7.7930    7.7000 C   0  0  0  0  0  2  0  0  0  0  0  0
    5.6130    8.5010    6.3940 C   0  0  0  0  0  2  0  0  0  0  0  0
    6.7750    9.3200    5.8360 C   0  0  0  0  0  2  0  0  0  0  0  0
    7.3930    8.5960    4.6780 N   0  0  0  0  0  0  0  0  0  0  0  0
    7.1180    9.3020    3.4050 C   0  0  0  0  0  1  0  0  0  0  0  0
    9.0080    8.1600    4.9430 S   0  0  0  0  0  0  0  0  0  0  0  0
    9.7860    9.3760    4.9260 O   0  0  0  0  0  0  0  0  0  0  0  0
    9.0580    7.2420    6.0520 O   0  0  0  0  0  0  0  0  0  0  0  0
    9.3680    7.3670    3.5230 N   0  0  0  0  0  0  0  0  0  0  0  0
    9.9190    6.0730    3.5280 C   0  0  0  0  0  0  0  0  0  0  0  0
   11.0340    5.9010    3.0570 O   0  0  0  0  0  0  0  0  0  0  0  0
    9.0740    4.9280    3.9670 C   0  0  0  0  0  0  0  0  0  0  0  0
    9.7280    3.7350    4.2750 C   0  0  0  0  0  3  0  0  0  0  0  0
    9.0030    2.5790    4.5810 C   0  0  0  0  0  3  0  0  0  0  0  0
    7.5920    2.6000    4.5540 C   0  0  0  0  0  0  0  0  0  0  0  0
    6.5790    1.5980    4.7580 C   0  0  0  0  0  0  0  0  0  0  0  0
    5.3480    2.2070    4.5110 C   0  0  0  0  0  0  0  0  0  0  0  0
    5.5970    3.5610    4.3530 N   0  0  0  0  0  0  0  0  0  0  0  0
    6.9530    3.8080    4.2710 C   0  0  0  0  0  0  0  0  0  0  0  0
    7.6720    4.9900    3.9850 C   0  0  0  0  0  3  0  0  0  0  0  0
    4.5460    4.5760    4.3480 C   0  0  0  0  0  2  0  0  0  0  0  0
    3.7230    4.4710    5.5940 C   0  0  0  0  0  0  0  0  0  0  0  0
    2.9700    3.4220    5.9590 C   0  0  0  0  0  3  0  0  0  0  0  0
    2.8860    2.1930    5.1530 C   0  0  0  0  0  0  0  0  0  0  0  0
    1.6320    1.5590    5.0940 C   0  0  0  0  0  3  0  0  0  0  0  0
    1.4510    0.4040    4.3340 C   0  0  0  0  0  3  0  0  0  0  0  0
    2.5220   -0.1260    3.6240 C   0  0  0  0  0  0  0  0  0  0  0  0
    2.3010   -1.5410    2.6710 Cl  0  0  0  0  0  0  0  0  0  0  0  0
    3.7750    0.4810    3.6820 C   0  0  0  0  0  3  0  0  0  0  0  0
    3.9850    1.6300    4.4640 C   0  0  0  0  0  0  0  0  0  0  0  0
    3.7330    5.6540    6.4780 C   0  0  0  0  0  0  0  0  0  0  0  0
    2.9380    6.5620    6.2490 O   0  0  0  0  0  0  0  0  0  0  0  0
   10.0020    7.9920    3.0250 H   0  0  0  0  0  0  0  0  0  0  0  0
    6.8010    0.1510    5.1580 C   0  0  0  0  0  3  0  0  0  0  0  0
    7.5370   -0.6570    4.0770 C   0  0  0  0  0  2  0  0  0  0  0  0
    7.7110   -2.1170    4.4920 C   0  0  0  0  0  2  0  0  0  0  0  0
    8.4010   -2.2380    5.8480 C   0  0  0  0  0  2  0  0  0  0  0  0
    7.6690   -1.4440    6.9260 C   0  0  0  0  0  2  0  0  0  0  0  0
    7.4940    0.0200    6.5260 C   0  0  0  0  0  2  0  0  0  0  0  0
  2  1  1  0  0  0  0
  2  3  1  0  0  0  0
  4  3  1  0  0  0  0
  5  4  1  0  0  0  0
  6  5  1  0  0  0  0
  7  9  1  0  0  0  0
  7  6  1  0  0  0  0
  8  7  1  0  0  0  0
  9 11  2  0  0  0  0
 10  9  2  0  0  0  0
 12 13  1  0  0  0  0
 12  9  1  0  0  0  0
 13 15  1  0  0  0  0
 14 13  2  0  0  0  0
 15 23  2  0  0  0  0
 15 16  1  0  0  0  0
 16 17  2  0  0  0  0
 18 17  1  0  0  0  0
 18 19  1  0  0  0  0
 19 37  1  0  0  0  0
 20 19  2  0  0  0  0
 21 20  1  0  0  0  0
 22 21  1  0  0  0  0
 22 18  2  0  0  0  0
 23 22  1  0  0  0  0
 24 21  1  0  0  0  0
 24 25  1  0  0  0  0
 25 26  2  0  0  0  0
 25 34  1  0  0  0  0
 27 26  1  0  0  0  0
 28 27  1  0  0  0  0
 29 28  2  0  0  0  0
 30 32  2  0  0  0  0
 30 29  1  0  0  0  0
 31 30  1  0  0  0  0
 32 33  1  0  0  0  0
 33 20  1  0  0  0  0
 33 27  2  0  0  0  0
 34  2  1  0  0  0  0
 35 34  2  0  0  0  0
 36 12  1  0  0  0  0
 37 42  1  0  0  0  0
 38 39  1  0  0  0  0
 38 37  1  0  0  0  0
 39 40  1  0  0  0  0
 40 41  1  0  0  0  0
 42 41  1  0  0  0  0
M  END
>  <minimizedAffinity>
-4.53897429

$$$$
