
 OpenBabel09132204463D

 46 51  0  0  1  0  0  0  0  0999 V2000
  -12.0510    8.3170    6.1610 N   0  0  0  0  0  0  0  0  0  0  0  0
  -10.8390    7.8440    6.5870 C   0  0  0  0  0  0  0  0  0  0  0  0
  -10.0760    7.2730    5.8080 O   0  0  0  0  0  0  0  0  0  0  0  0
  -12.1470    8.2550    5.1560 H   0  0  0  0  0  0  0  0  0  0  0  0
  -10.4800    7.8840    8.0120 C   0  0  0  0  0  0  0  0  0  0  0  0
  -11.2140    7.0800    8.8920 C   0  0  0  0  0  3  0  0  0  0  0  0
  -10.9630    7.1080   10.2650 C   0  0  0  0  0  3  0  0  0  0  0  0
   -9.9260    7.9410   10.7090 C   0  0  0  0  0  0  0  0  0  0  0  0
   -9.1340    8.6780    9.8310 C   0  0  0  0  0  0  0  0  0  0  0  0
   -9.4130    8.6710    8.4550 C   0  0  0  0  0  3  0  0  0  0  0  0
   -8.1340    9.3230   10.5090 N   0  0  0  0  0  0  0  0  0  0  0  0
   -8.2910    9.0190   11.7840 C   0  0  0  0  0  0  0  0  0  0  0  0
   -9.4540    8.2880   11.9640 N   0  0  0  0  0  0  0  0  0  0  0  0
  -10.1200    8.0130   13.2340 C   0  0  0  0  0  3  0  0  0  0  0  0
  -11.0120    9.1620   13.7420 C   0  0  0  0  0  2  0  0  0  0  0  0
  -11.6080    8.8250   15.1080 C   0  0  0  0  0  2  0  0  0  0  0  0
  -12.3620    7.4990   15.0760 C   0  0  0  0  0  2  0  0  0  0  0  0
  -11.4780    6.3580   14.5800 C   0  0  0  0  0  2  0  0  0  0  0  0
  -10.8640    6.6710   13.2170 C   0  0  0  0  0  2  0  0  0  0  0  0
   -7.2760    9.4470   12.7940 C   0  0  0  0  0  0  0  0  0  0  0  0
   -7.3960    9.8600   14.1430 C   0  0  0  0  0  3  0  0  0  0  0  0
   -6.1170   10.1110   14.5850 C   0  0  0  0  0  3  0  0  0  0  0  0
   -5.2140    9.8630   13.6030 O   0  0  0  0  0  0  0  0  0  0  0  0
   -5.9240    9.4520   12.5210 C   0  0  0  0  0  3  0  0  0  0  0  0
  -13.0560    9.2350    6.7940 C   0  0  2  0  0  3  0  0  0  0  0  0
  -14.4990    8.9820    6.2530 C   0  0  0  0  0  0  0  0  0  0  0  0
  -14.6290    7.9150    5.5780 O   0  0  0  0  0  0  0  0  0  0  0  0
  -15.3530    9.8860    6.4780 O   0  0  0  0  0  1  0  0  0  0  0  0
  -12.6950   10.7230    6.7690 C   0  0  0  0  0  2  0  0  0  0  0  0
  -14.2580   10.9950   11.1560 C   0  0  0  0  0  0  0  0  0  0  0  0
  -13.3340   11.5550   12.0360 C   0  0  0  0  0  3  0  0  0  0  0  0
  -12.0990   12.0270   11.5790 C   0  0  0  0  0  3  0  0  0  0  0  0
  -11.8170   11.8870   10.2140 C   0  0  0  0  0  0  0  0  0  0  0  0
  -10.6980   12.2350    9.4950 N   0  0  0  0  0  0  0  0  0  0  0  0
  -10.8440   11.8850    8.1810 C   0  0  0  0  0  3  0  0  0  0  0  0
  -12.0850   11.3000    8.0200 C   0  0  0  0  0  0  0  0  0  0  0  0
  -12.7070   11.2970    9.3170 C   0  0  0  0  0  0  0  0  0  0  0  0
  -13.9440   10.8250    9.8070 C   0  0  0  0  0  3  0  0  0  0  0  0
   -9.8740   12.6660    9.8860 H   0  0  0  0  0  0  0  0  0  0  0  0
  -15.4220   10.4860   11.6640 O   0  0  0  0  0  0  0  0  0  0  0  0
  -14.1500    8.3350   11.8680 C   0  0  0  0  0  1  0  0  0  0  0  0
  -15.3340    9.1980   12.3340 C   0  0  0  0  0  0  0  0  0  0  0  0
  -15.2900    9.3740   13.8570 C   0  0  0  0  0  1  0  0  0  0  0  0
  -16.6390    8.3910   11.9460 C   0  0  0  0  0  0  0  0  0  0  0  0
  -16.9880    7.4710   12.7490 O   0  0  0  0  0  1  0  0  0  0  0  0
  -17.2270    8.7440   10.8780 O   0  0  0  0  0  0  0  0  0  0  0  0
  1  2  1  0  0  0  0
  1 25  1  0  0  0  0
  2  5  1  0  0  0  0
  3  2  2  0  0  0  0
  4  1  1  0  0  0  0
  5 10  2  0  0  0  0
  5  6  1  0  0  0  0
  6  7  2  0  0  0  0
  7  8  1  0  0  0  0
  8 13  1  0  0  0  0
  9 11  1  0  0  0  0
  9  8  2  0  0  0  0
 10  9  1  0  0  0  0
 11 12  2  0  0  0  0
 12 13  1  0  0  0  0
 12 20  1  0  0  0  0
 13 14  1  0  0  0  0
 14 15  1  0  0  0  0
 15 16  1  0  0  0  0
 17 16  1  0  0  0  0
 18 17  1  0  0  0  0
 19 14  1  0  0  0  0
 19 18  1  0  0  0  0
 20 21  1  0  0  0  0
 21 22  2  0  0  0  0
 23 22  1  0  0  0  0
 24 20  2  0  0  0  0
 24 23  1  0  0  0  0
 25 29  1  6  0  0  0
 26 28  1  0  0  0  0
 26 25  1  0  0  0  0
 27 26  2  0  0  0  0
 29 36  1  0  0  0  0
 30 40  1  0  0  0  0
 30 31  1  0  0  0  0
 32 31  2  0  0  0  0
 33 32  1  0  0  0  0
 34 39  1  0  0  0  0
 34 33  1  0  0  0  0
 35 34  1  0  0  0  0
 36 35  2  0  0  0  0
 36 37  1  0  0  0  0
 37 38  1  0  0  0  0
 37 33  2  0  0  0  0
 38 30  2  0  0  0  0
 40 42  1  0  0  0  0
 41 42  1  0  0  0  0
 42 43  1  0  0  0  0
 44 42  1  0  0  0  0
 44 45  1  0  0  0  0
 46 44  2  0  0  0  0
M  END
>  <minimizedAffinity>
-8.56035042

$$$$
