
 OpenBabel09132204463D

 46 51  0  0  1  0  0  0  0  0999 V2000
  -12.0970    7.2500    6.2490 N   0  0  0  0  0  0  0  0  0  0  0  0
  -11.0440    6.6700    6.9030 C   0  0  0  0  0  0  0  0  0  0  0  0
  -10.4640    5.6960    6.4250 O   0  0  0  0  0  0  0  0  0  0  0  0
  -12.2180    6.8710    5.3190 H   0  0  0  0  0  0  0  0  0  0  0  0
  -10.6700    7.1110    8.2550 C   0  0  0  0  0  0  0  0  0  0  0  0
  -11.4710    6.6890    9.3230 C   0  0  0  0  0  3  0  0  0  0  0  0
  -11.2060    7.1130   10.6270 C   0  0  0  0  0  3  0  0  0  0  0  0
  -10.0890    7.9380   10.8170 C   0  0  0  0  0  0  0  0  0  0  0  0
   -9.2370    8.2910    9.7720 C   0  0  0  0  0  0  0  0  0  0  0  0
   -9.5270    7.8900    8.4590 C   0  0  0  0  0  3  0  0  0  0  0  0
   -8.1730    9.0150   10.2420 N   0  0  0  0  0  0  0  0  0  0  0  0
   -8.3470    9.1320   11.5450 C   0  0  0  0  0  0  0  0  0  0  0  0
   -9.5740    8.6060   11.9150 N   0  0  0  0  0  0  0  0  0  0  0  0
  -10.2520    8.7990   13.1940 C   0  0  0  0  0  3  0  0  0  0  0  0
  -11.2550    9.9680   13.2080 C   0  0  0  0  0  2  0  0  0  0  0  0
  -11.8610   10.1490   14.5990 C   0  0  0  0  0  2  0  0  0  0  0  0
  -12.4960    8.8560   15.1030 C   0  0  0  0  0  2  0  0  0  0  0  0
  -11.5030    7.6970   15.0960 C   0  0  0  0  0  2  0  0  0  0  0  0
  -10.8770    7.4980   13.7180 C   0  0  0  0  0  2  0  0  0  0  0  0
   -7.2860    9.7500   12.3970 C   0  0  0  0  0  0  0  0  0  0  0  0
   -7.3530   10.5670   13.5520 C   0  0  0  0  0  3  0  0  0  0  0  0
   -6.0520   10.8170   13.9240 C   0  0  0  0  0  3  0  0  0  0  0  0
   -5.1860   10.1950   13.0850 O   0  0  0  0  0  0  0  0  0  0  0  0
   -5.9430    9.5410   12.1650 C   0  0  0  0  0  3  0  0  0  0  0  0
  -12.8240    8.5480    6.4540 C   0  0  2  0  0  3  0  0  0  0  0  0
  -14.2610    8.5160    5.8450 C   0  0  0  0  0  0  0  0  0  0  0  0
  -14.6970    7.3510    5.5880 O   0  0  0  0  0  0  0  0  0  0  0  0
  -14.7990    9.6340    5.6070 O   0  0  0  0  0  1  0  0  0  0  0  0
  -12.0570    9.8050    6.0310 C   0  0  0  0  0  2  0  0  0  0  0  0
  -12.6010    9.9840    1.4010 C   0  0  0  0  0  0  0  0  0  0  0  0
  -11.4030    9.8630    0.7010 C   0  0  0  0  0  3  0  0  0  0  0  0
  -10.1940    9.6490    1.3730 C   0  0  0  0  0  3  0  0  0  0  0  0
  -10.2330    9.5930    2.7720 C   0  0  0  0  0  0  0  0  0  0  0  0
   -9.2200    9.4160    3.6840 N   0  0  0  0  0  0  0  0  0  0  0  0
   -9.7120    9.4570    4.9600 C   0  0  0  0  0  3  0  0  0  0  0  0
  -11.0760    9.6580    4.8960 C   0  0  0  0  0  0  0  0  0  0  0  0
  -11.4120    9.7480    3.5010 C   0  0  0  0  0  0  0  0  0  0  0  0
  -12.6150    9.9670    2.7960 C   0  0  0  0  0  3  0  0  0  0  0  0
   -8.2470    9.2980    3.4480 H   0  0  0  0  0  0  0  0  0  0  0  0
  -13.7450   10.2600    0.7020 O   0  0  0  0  0  0  0  0  0  0  0  0
  -13.7340   12.5620    1.6950 C   0  0  0  0  0  1  0  0  0  0  0  0
  -14.0550   11.6650    0.4890 C   0  0  0  0  0  0  0  0  0  0  0  0
  -13.3530   12.1980   -0.7670 C   0  0  0  0  0  1  0  0  0  0  0  0
  -15.6220   11.7600    0.2820 C   0  0  0  0  0  0  0  0  0  0  0  0
  -16.0240   11.8410   -0.9210 O   0  0  0  0  0  0  0  0  0  0  0  0
  -16.3350   11.7320    1.3310 O   0  0  0  0  0  1  0  0  0  0  0  0
  1 25  1  0  0  0  0
  1  2  1  0  0  0  0
  2  5  1  0  0  0  0
  3  2  2  0  0  0  0
  4  1  1  0  0  0  0
  5 10  2  0  0  0  0
  5  6  1  0  0  0  0
  6  7  2  0  0  0  0
  7  8  1  0  0  0  0
  8 13  1  0  0  0  0
  9 11  1  0  0  0  0
  9  8  2  0  0  0  0
 10  9  1  0  0  0  0
 11 12  2  0  0  0  0
 12 13  1  0  0  0  0
 12 20  1  0  0  0  0
 13 14  1  0  0  0  0
 14 15  1  0  0  0  0
 14 19  1  0  0  0  0
 15 16  1  0  0  0  0
 16 17  1  0  0  0  0
 18 17  1  0  0  0  0
 19 18  1  0  0  0  0
 20 21  1  0  0  0  0
 21 22  2  0  0  0  0
 23 22  1  0  0  0  0
 24 20  2  0  0  0  0
 24 23  1  0  0  0  0
 25 29  1  6  0  0  0
 26 25  1  0  0  0  0
 27 26  2  0  0  0  0
 28 26  1  0  0  0  0
 30 38  1  0  0  0  0
 31 32  1  0  0  0  0
 31 30  2  0  0  0  0
 32 33  2  0  0  0  0
 33 37  1  0  0  0  0
 33 34  1  0  0  0  0
 34 35  1  0  0  0  0
 36 35  2  0  0  0  0
 36 29  1  0  0  0  0
 37 36  1  0  0  0  0
 38 37  2  0  0  0  0
 39 34  1  0  0  0  0
 40 30  1  0  0  0  0
 42 40  1  0  0  0  0
 42 41  1  0  0  0  0
 43 42  1  0  0  0  0
 44 42  1  0  0  0  0
 44 46  1  0  0  0  0
 45 44  2  0  0  0  0
M  END
>  <minimizedAffinity>
-8.3602829

$$$$
