
 OpenBabel09132204463D

 46 51  0  0  1  0  0  0  0  0999 V2000
   -8.9590    8.0810   12.8410 N   0  0  0  0  0  0  0  0  0  0  0  0
   -9.6870    7.0630   12.2860 C   0  0  0  0  0  0  0  0  0  0  0  0
   -9.8060    5.9840   12.8650 O   0  0  0  0  0  0  0  0  0  0  0  0
   -8.6780    7.8690   13.7890 H   0  0  0  0  0  0  0  0  0  0  0  0
  -10.2300    7.1890   10.9250 C   0  0  0  0  0  0  0  0  0  0  0  0
   -9.3250    7.4090    9.8800 C   0  0  0  0  0  3  0  0  0  0  0  0
   -9.7740    7.5910    8.5710 C   0  0  0  0  0  3  0  0  0  0  0  0
  -11.1560    7.5030    8.3500 C   0  0  0  0  0  0  0  0  0  0  0  0
  -12.0550    7.1990    9.3700 C   0  0  0  0  0  0  0  0  0  0  0  0
  -11.6010    7.0500   10.6900 C   0  0  0  0  0  3  0  0  0  0  0  0
  -13.3250    7.0750    8.8710 N   0  0  0  0  0  0  0  0  0  0  0  0
  -13.2410    7.3070    7.5750 C   0  0  0  0  0  0  0  0  0  0  0  0
  -11.9580    7.7060    7.2400 N   0  0  0  0  0  0  0  0  0  0  0  0
  -11.5390    8.3200    5.9830 C   0  0  0  0  0  3  0  0  0  0  0  0
  -11.1610    9.8090    6.1020 C   0  0  0  0  0  2  0  0  0  0  0  0
  -10.8100   10.3930    4.7340 C   0  0  0  0  0  2  0  0  0  0  0  0
   -9.7110    9.5850    4.0480 C   0  0  0  0  0  2  0  0  0  0  0  0
  -10.0870    8.1110    3.9230 C   0  0  0  0  0  2  0  0  0  0  0  0
  -10.4480    7.5030    5.2770 C   0  0  0  0  0  2  0  0  0  0  0  0
  -14.4320    7.1120    6.6940 C   0  0  0  0  0  0  0  0  0  0  0  0
  -15.1410    7.9990    5.8480 C   0  0  0  0  0  3  0  0  0  0  0  0
  -16.1420    7.2570    5.2610 C   0  0  0  0  0  3  0  0  0  0  0  0
  -16.0860    5.9670    5.6750 O   0  0  0  0  0  0  0  0  0  0  0  0
  -15.0400    5.8840    6.5390 C   0  0  0  0  0  3  0  0  0  0  0  0
   -8.8360    9.5380   12.5020 C   0  0  2  0  0  3  0  0  0  0  0  0
   -7.6650   10.2220   13.2750 C   0  0  0  0  0  0  0  0  0  0  0  0
   -8.0190   11.1890   14.0190 O   0  0  0  0  0  1  0  0  0  0  0  0
   -6.5010    9.7970   13.0280 O   0  0  0  0  0  0  0  0  0  0  0  0
  -10.1330   10.3480   12.6060 C   0  0  0  0  0  2  0  0  0  0  0  0
  -14.6760   10.0050   11.6060 C   0  0  0  0  0  0  0  0  0  0  0  0
  -14.9810   10.3760   10.2990 C   0  0  0  0  0  3  0  0  0  0  0  0
  -13.9750   10.7480    9.4010 C   0  0  0  0  0  3  0  0  0  0  0  0
  -12.6570   10.7610    9.8770 C   0  0  0  0  0  0  0  0  0  0  0  0
  -11.4840   11.0960    9.2420 N   0  0  0  0  0  0  0  0  0  0  0  0
  -10.4270   10.9930   10.1030 C   0  0  0  0  0  3  0  0  0  0  0  0
  -10.9020   10.5760   11.3310 C   0  0  0  0  0  0  0  0  0  0  0  0
  -12.3260   10.4310   11.1910 C   0  0  0  0  0  0  0  0  0  0  0  0
  -13.3630   10.0640   12.0750 C   0  0  0  0  0  3  0  0  0  0  0  0
  -11.4160   11.3980    8.2820 H   0  0  0  0  0  0  0  0  0  0  0  0
  -15.7030    9.7160   12.4630 O   0  0  0  0  0  0  0  0  0  0  0  0
  -17.2280    7.7490   12.7610 C   0  0  0  0  0  1  0  0  0  0  0  0
  -15.8150    8.3350   12.9050 C   0  0  0  0  0  0  0  0  0  0  0  0
  -14.7980    7.4440   12.1800 C   0  0  0  0  0  1  0  0  0  0  0  0
  -15.4970    8.3240   14.4560 C   0  0  0  0  0  0  0  0  0  0  0  0
  -15.0010    7.2490   14.9180 O   0  0  0  0  0  0  0  0  0  0  0  0
  -15.7500    9.3910   15.0930 O   0  0  0  0  0  1  0  0  0  0  0  0
  1  4  1  0  0  0  0
  2  1  1  0  0  0  0
  2  3  2  0  0  0  0
  5  2  1  0  0  0  0
  6  5  2  0  0  0  0
  7  6  1  0  0  0  0
  8  7  2  0  0  0  0
  8  9  1  0  0  0  0
  9 10  2  0  0  0  0
 10  5  1  0  0  0  0
 11  9  1  0  0  0  0
 12 11  2  0  0  0  0
 13 12  1  0  0  0  0
 13  8  1  0  0  0  0
 14 15  1  0  0  0  0
 14 13  1  0  0  0  0
 16 15  1  0  0  0  0
 17 16  1  0  0  0  0
 18 17  1  0  0  0  0
 18 19  1  0  0  0  0
 19 14  1  0  0  0  0
 20 12  1  0  0  0  0
 21 20  1  0  0  0  0
 22 23  1  0  0  0  0
 22 21  2  0  0  0  0
 23 24  1  0  0  0  0
 24 20  2  0  0  0  0
 25 29  1  1  0  0  0
 25  1  1  0  0  0  0
 25 26  1  0  0  0  0
 26 27  1  0  0  0  0
 28 26  2  0  0  0  0
 30 38  1  0  0  0  0
 30 40  1  0  0  0  0
 31 30  2  0  0  0  0
 32 33  2  0  0  0  0
 32 31  1  0  0  0  0
 33 37  1  0  0  0  0
 34 33  1  0  0  0  0
 34 35  1  0  0  0  0
 35 36  2  0  0  0  0
 36 29  1  0  0  0  0
 37 36  1  0  0  0  0
 37 38  2  0  0  0  0
 39 34  1  0  0  0  0
 40 42  1  0  0  0  0
 41 42  1  0  0  0  0
 42 44  1  0  0  0  0
 43 42  1  0  0  0  0
 44 45  2  0  0  0  0
 44 46  1  0  0  0  0
M  END
>  <minimizedAffinity>
-8.48352909

$$$$
