
 OpenBabel09132204463D

 46 51  0  0  1  0  0  0  0  0999 V2000
  -12.0660    7.5920    6.2280 N   0  0  0  0  0  0  0  0  0  0  0  0
  -10.8540    7.1650    6.6970 C   0  0  0  0  0  0  0  0  0  0  0  0
  -10.1080    6.4850    5.9920 O   0  0  0  0  0  0  0  0  0  0  0  0
  -12.1780    7.3970    5.2420 H   0  0  0  0  0  0  0  0  0  0  0  0
  -10.4730    7.3910    8.0990 C   0  0  0  0  0  0  0  0  0  0  0  0
  -11.1360    6.6470    9.0820 C   0  0  0  0  0  3  0  0  0  0  0  0
  -10.8630    6.8490   10.4370 C   0  0  0  0  0  3  0  0  0  0  0  0
   -9.8770    7.7910   10.7580 C   0  0  0  0  0  0  0  0  0  0  0  0
   -9.1510    8.4730    9.7820 C   0  0  0  0  0  0  0  0  0  0  0  0
   -9.4530    8.2910    8.4230 C   0  0  0  0  0  3  0  0  0  0  0  0
   -8.1860    9.2540   10.3580 N   0  0  0  0  0  0  0  0  0  0  0  0
   -8.2990    9.0890   11.6630 C   0  0  0  0  0  0  0  0  0  0  0  0
   -9.4070    8.3100   11.9530 N   0  0  0  0  0  0  0  0  0  0  0  0
  -10.0310    8.1400   13.2620 C   0  0  0  0  0  3  0  0  0  0  0  0
  -10.5540    9.4460   13.8880 C   0  0  0  0  0  2  0  0  0  0  0  0
  -11.1200    9.1930   15.2850 C   0  0  0  0  0  2  0  0  0  0  0  0
  -12.1950    8.1090   15.2630 C   0  0  0  0  0  2  0  0  0  0  0  0
  -11.6760    6.8120   14.6500 C   0  0  0  0  0  2  0  0  0  0  0  0
  -11.0990    7.0370   13.2540 C   0  0  0  0  0  2  0  0  0  0  0  0
   -7.2980    9.6940   12.5920 C   0  0  0  0  0  0  0  0  0  0  0  0
   -5.9760    9.3190   12.9370 C   0  0  0  0  0  3  0  0  0  0  0  0
   -5.5260   10.2670   13.8280 C   0  0  0  0  0  3  0  0  0  0  0  0
   -6.4760   11.2120   14.0420 O   0  0  0  0  0  0  0  0  0  0  0  0
   -7.5460   10.8620   13.2820 C   0  0  0  0  0  3  0  0  0  0  0  0
  -13.0530    8.5980    6.7460 C   0  0  2  0  0  3  0  0  0  0  0  0
  -14.5270    8.1750    6.4530 C   0  0  0  0  0  0  0  0  0  0  0  0
  -14.6690    6.9570    6.1230 O   0  0  0  0  0  0  0  0  0  0  0  0
  -15.3980    9.0890    6.5020 O   0  0  0  0  0  1  0  0  0  0  0  0
  -12.7880   10.0500    6.3340 C   0  0  0  0  0  2  0  0  0  0  0  0
  -12.4600   10.5990   10.9540 C   0  0  0  0  0  0  0  0  0  0  0  0
  -11.3680   11.3720   11.3410 C   0  0  0  0  0  3  0  0  0  0  0  0
  -10.5220   11.9510   10.3880 C   0  0  0  0  0  3  0  0  0  0  0  0
  -10.7990   11.6980    9.0390 C   0  0  0  0  0  0  0  0  0  0  0  0
  -10.1430   12.1100    7.9020 N   0  0  0  0  0  0  0  0  0  0  0  0
  -10.7480   11.5990    6.7880 C   0  0  0  0  0  3  0  0  0  0  0  0
  -11.8290   10.8390    7.1870 C   0  0  0  0  0  0  0  0  0  0  0  0
  -11.8630   10.8980    8.6240 C   0  0  0  0  0  0  0  0  0  0  0  0
  -12.6960   10.3230    9.6070 C   0  0  0  0  0  3  0  0  0  0  0  0
   -9.3160   12.6880    7.8930 H   0  0  0  0  0  0  0  0  0  0  0  0
  -13.2150    9.9990   11.9250 O   0  0  0  0  0  0  0  0  0  0  0  0
  -13.6330   11.5950   13.8130 C   0  0  0  0  0  1  0  0  0  0  0  0
  -14.1940   10.8370   12.6000 C   0  0  0  0  0  0  0  0  0  0  0  0
  -14.8440   11.8210   11.6180 C   0  0  0  0  0  1  0  0  0  0  0  0
  -15.3080    9.8680   13.1710 C   0  0  0  0  0  0  0  0  0  0  0  0
  -15.2490    9.6190   14.4160 O   0  0  0  0  0  1  0  0  0  0  0  0
  -16.1670    9.4390   12.3410 O   0  0  0  0  0  0  0  0  0  0  0  0
  1  2  1  0  0  0  0
  1 25  1  0  0  0  0
  2  5  1  0  0  0  0
  3  2  2  0  0  0  0
  4  1  1  0  0  0  0
  5 10  2  0  0  0  0
  5  6  1  0  0  0  0
  6  7  2  0  0  0  0
  7  8  1  0  0  0  0
  8 13  1  0  0  0  0
  9 11  1  0  0  0  0
  9  8  2  0  0  0  0
 10  9  1  0  0  0  0
 11 12  2  0  0  0  0
 12 13  1  0  0  0  0
 12 20  1  0  0  0  0
 13 14  1  0  0  0  0
 14 15  1  0  0  0  0
 15 16  1  0  0  0  0
 17 16  1  0  0  0  0
 18 17  1  0  0  0  0
 19 14  1  0  0  0  0
 19 18  1  0  0  0  0
 20 21  1  0  0  0  0
 20 24  2  0  0  0  0
 21 22  2  0  0  0  0
 22 23  1  0  0  0  0
 24 23  1  0  0  0  0
 25 29  1  6  0  0  0
 26 28  1  0  0  0  0
 26 25  1  0  0  0  0
 27 26  2  0  0  0  0
 29 36  1  0  0  0  0
 30 31  1  0  0  0  0
 30 40  1  0  0  0  0
 32 31  2  0  0  0  0
 33 32  1  0  0  0  0
 34 33  1  0  0  0  0
 35 36  2  0  0  0  0
 35 34  1  0  0  0  0
 36 37  1  0  0  0  0
 37 33  2  0  0  0  0
 37 38  1  0  0  0  0
 38 30  2  0  0  0  0
 39 34  1  0  0  0  0
 40 42  1  0  0  0  0
 42 44  1  0  0  0  0
 42 41  1  0  0  0  0
 43 42  1  0  0  0  0
 44 45  1  0  0  0  0
 46 44  2  0  0  0  0
M  END
>  <minimizedAffinity>
-8.76839542

$$$$
