
 OpenBabel09132204463D

 46 51  0  0  1  0  0  0  0  0999 V2000
   -9.2940    8.1220   13.2540 N   0  0  0  0  0  0  0  0  0  0  0  0
   -9.8500    7.0440   12.6210 C   0  0  0  0  0  0  0  0  0  0  0  0
   -9.7440    5.9120   13.0930 O   0  0  0  0  0  0  0  0  0  0  0  0
   -8.9350    7.8790   14.1680 H   0  0  0  0  0  0  0  0  0  0  0  0
  -10.4690    7.1930   11.2960 C   0  0  0  0  0  0  0  0  0  0  0  0
  -11.8670    7.1830   11.2250 C   0  0  0  0  0  3  0  0  0  0  0  0
  -12.5210    7.2660    9.9940 C   0  0  0  0  0  3  0  0  0  0  0  0
  -11.7210    7.3990    8.8510 C   0  0  0  0  0  0  0  0  0  0  0  0
  -10.3320    7.4960    8.9210 C   0  0  0  0  0  0  0  0  0  0  0  0
   -9.6780    7.3790   10.1580 C   0  0  0  0  0  3  0  0  0  0  0  0
   -9.8020    7.7200    7.6780 N   0  0  0  0  0  0  0  0  0  0  0  0
  -10.8200    7.7500    6.8380 C   0  0  0  0  0  0  0  0  0  0  0  0
  -11.9940    7.4230    7.4940 N   0  0  0  0  0  0  0  0  0  0  0  0
  -13.2670    7.0690    6.8720 C   0  0  0  0  0  3  0  0  0  0  0  0
  -13.9760    5.8660    7.5210 C   0  0  0  0  0  2  0  0  0  0  0  0
  -15.2580    5.5160    6.7650 C   0  0  0  0  0  2  0  0  0  0  0  0
  -16.1860    6.7220    6.6520 C   0  0  0  0  0  2  0  0  0  0  0  0
  -15.4880    7.9140    6.0030 C   0  0  0  0  0  2  0  0  0  0  0  0
  -14.1990    8.2820    6.7360 C   0  0  0  0  0  2  0  0  0  0  0  0
  -10.6060    8.1180    5.4060 C   0  0  0  0  0  0  0  0  0  0  0  0
  -10.1020    7.3860    4.3030 C   0  0  0  0  0  3  0  0  0  0  0  0
  -10.1570    8.2330    3.2190 C   0  0  0  0  0  3  0  0  0  0  0  0
  -10.6780    9.4340    3.5760 O   0  0  0  0  0  0  0  0  0  0  0  0
  -10.9560    9.3540    4.9030 C   0  0  0  0  0  3  0  0  0  0  0  0
   -9.4540    9.6030   13.0580 C   0  0  2  0  0  3  0  0  0  0  0  0
   -8.0780   10.3400   13.0270 C   0  0  0  0  0  0  0  0  0  0  0  0
   -7.3180    9.9950   12.0700 O   0  0  0  0  0  0  0  0  0  0  0  0
   -7.8400   11.1330   13.9810 O   0  0  0  0  0  1  0  0  0  0  0  0
  -10.4420   10.2880   14.0080 C   0  0  0  0  0  2  0  0  0  0  0  0
  -14.8630   10.2900   12.5200 C   0  0  0  0  0  0  0  0  0  0  0  0
  -15.6560    9.3320   13.1480 C   0  0  0  0  0  3  0  0  0  0  0  0
  -15.1360    8.5180   14.1610 C   0  0  0  0  0  3  0  0  0  0  0  0
  -13.7860    8.6840   14.4950 C   0  0  0  0  0  0  0  0  0  0  0  0
  -13.0100    8.0260   15.4200 N   0  0  0  0  0  0  0  0  0  0  0  0
  -11.7260    8.4970   15.3900 C   0  0  0  0  0  3  0  0  0  0  0  0
  -11.6470    9.4900   14.4340 C   0  0  0  0  0  0  0  0  0  0  0  0
  -12.9590    9.6100   13.8580 C   0  0  0  0  0  0  0  0  0  0  0  0
  -13.5100   10.4140   12.8370 C   0  0  0  0  0  3  0  0  0  0  0  0
  -13.3350    7.2840   16.0200 H   0  0  0  0  0  0  0  0  0  0  0  0
  -15.4000   11.0130   11.4900 O   0  0  0  0  0  0  0  0  0  0  0  0
  -13.8690   10.5810    9.5530 C   0  0  0  0  0  1  0  0  0  0  0  0
  -15.2750   10.4420   10.1580 C   0  0  0  0  0  0  0  0  0  0  0  0
  -15.7110    8.9710   10.1490 C   0  0  0  0  0  1  0  0  0  0  0  0
  -16.2380   11.2710    9.2130 C   0  0  0  0  0  0  0  0  0  0  0  0
  -16.3170   10.8750    8.0090 O   0  0  0  0  0  0  0  0  0  0  0  0
  -16.8540   12.2440    9.7460 O   0  0  0  0  0  1  0  0  0  0  0  0
  1  4  1  0  0  0  0
  2  3  2  0  0  0  0
  2  1  1  0  0  0  0
  5  2  1  0  0  0  0
  6  5  1  0  0  0  0
  7  6  2  0  0  0  0
  8  9  2  0  0  0  0
  8  7  1  0  0  0  0
  9 10  1  0  0  0  0
 10  5  2  0  0  0  0
 11  9  1  0  0  0  0
 12 13  1  0  0  0  0
 12 11  2  0  0  0  0
 13  8  1  0  0  0  0
 14 13  1  0  0  0  0
 14 15  1  0  0  0  0
 16 15  1  0  0  0  0
 17 16  1  0  0  0  0
 18 17  1  0  0  0  0
 18 19  1  0  0  0  0
 19 14  1  0  0  0  0
 20 12  1  0  0  0  0
 21 20  1  0  0  0  0
 22 23  1  0  0  0  0
 22 21  2  0  0  0  0
 23 24  1  0  0  0  0
 24 20  2  0  0  0  0
 25  1  1  0  0  0  0
 25 29  1  1  0  0  0
 26 25  1  0  0  0  0
 26 28  1  0  0  0  0
 27 26  2  0  0  0  0
 29 36  1  0  0  0  0
 30 38  2  0  0  0  0
 30 31  1  0  0  0  0
 31 32  2  0  0  0  0
 32 33  1  0  0  0  0
 33 34  1  0  0  0  0
 34 39  1  0  0  0  0
 35 34  1  0  0  0  0
 36 35  2  0  0  0  0
 37 36  1  0  0  0  0
 37 33  2  0  0  0  0
 38 37  1  0  0  0  0
 40 30  1  0  0  0  0
 41 42  1  0  0  0  0
 42 40  1  0  0  0  0
 43 42  1  0  0  0  0
 44 46  1  0  0  0  0
 44 42  1  0  0  0  0
 45 44  2  0  0  0  0
M  END
>  <minimizedAffinity>
-8.70858383

$$$$
