
 OpenBabel09132204463D

 46 51  0  0  1  0  0  0  0  0999 V2000
  -14.4570    6.0150   10.7370 N   0  0  0  0  0  0  0  0  0  0  0  0
  -13.4230    5.6660    9.9090 C   0  0  0  0  0  0  0  0  0  0  0  0
  -12.9110    4.5490    9.9770 O   0  0  0  0  0  0  0  0  0  0  0  0
  -14.7960    5.2250   11.2690 H   0  0  0  0  0  0  0  0  0  0  0  0
  -12.8130    6.6610    9.0160 C   0  0  0  0  0  0  0  0  0  0  0  0
  -12.1020    7.7140    9.6030 C   0  0  0  0  0  3  0  0  0  0  0  0
  -11.5410    8.7240    8.8180 C   0  0  0  0  0  3  0  0  0  0  0  0
  -11.6890    8.6110    7.4280 C   0  0  0  0  0  0  0  0  0  0  0  0
  -12.3200    7.5210    6.8320 C   0  0  0  0  0  0  0  0  0  0  0  0
  -12.9110    6.5260    7.6280 C   0  0  0  0  0  3  0  0  0  0  0  0
  -12.2400    7.6060    5.4680 N   0  0  0  0  0  0  0  0  0  0  0  0
  -11.5900    8.7230    5.2000 C   0  0  0  0  0  0  0  0  0  0  0  0
  -11.3560    9.4330    6.3650 N   0  0  0  0  0  0  0  0  0  0  0  0
  -10.9310   10.8270    6.4620 C   0  0  0  0  0  3  0  0  0  0  0  0
  -12.0210   11.7880    6.9720 C   0  0  0  0  0  2  0  0  0  0  0  0
  -11.5200   13.2310    6.9710 C   0  0  0  0  0  2  0  0  0  0  0  0
  -10.2260   13.3730    7.7690 C   0  0  0  0  0  2  0  0  0  0  0  0
   -9.1420   12.4270    7.2610 C   0  0  0  0  0  2  0  0  0  0  0  0
   -9.6190   10.9760    7.2460 C   0  0  0  0  0  2  0  0  0  0  0  0
  -11.2020    9.0530    3.7950 C   0  0  0  0  0  0  0  0  0  0  0  0
  -11.9700    9.2630    2.6240 C   0  0  0  0  0  3  0  0  0  0  0  0
  -11.0730    9.5610    1.6230 C   0  0  0  0  0  3  0  0  0  0  0  0
   -9.8040    9.5660    2.1030 O   0  0  0  0  0  0  0  0  0  0  0  0
   -9.8910    9.2650    3.4250 C   0  0  0  0  0  3  0  0  0  0  0  0
  -15.4110    7.1740   10.7290 C   0  0  2  0  0  3  0  0  0  0  0  0
  -15.8240    7.5800    9.2790 C   0  0  0  0  0  0  0  0  0  0  0  0
  -15.5220    8.7720    8.9590 O   0  0  0  0  0  1  0  0  0  0  0  0
  -16.4690    6.7220    8.6140 O   0  0  0  0  0  0  0  0  0  0  0  0
  -14.9760    8.3890   11.5540 C   0  0  0  0  0  2  0  0  0  0  0  0
  -11.0020    9.7080   13.6110 C   0  0  0  0  0  0  0  0  0  0  0  0
  -10.9030    9.2890   14.9360 C   0  0  0  0  0  3  0  0  0  0  0  0
  -11.9010    8.5010   15.5190 C   0  0  0  0  0  3  0  0  0  0  0  0
  -13.0130    8.1770   14.7310 C   0  0  0  0  0  0  0  0  0  0  0  0
  -14.1380    7.4470   15.0350 N   0  0  0  0  0  0  0  0  0  0  0  0
  -14.9870    7.4080   13.9640 C   0  0  0  0  0  3  0  0  0  0  0  0
  -14.4160    8.1180   12.9270 C   0  0  0  0  0  0  0  0  0  0  0  0
  -13.1570    8.6130   13.4140 C   0  0  0  0  0  0  0  0  0  0  0  0
  -12.1360    9.4110   12.8540 C   0  0  0  0  0  3  0  0  0  0  0  0
  -14.3220    7.0210   15.9300 H   0  0  0  0  0  0  0  0  0  0  0  0
  -10.0330   10.5330   13.1090 O   0  0  0  0  0  0  0  0  0  0  0  0
   -8.9690    8.3640   12.4380 C   0  0  0  0  0  1  0  0  0  0  0  0
   -8.9650    9.8990   12.3510 C   0  0  0  0  0  0  0  0  0  0  0  0
   -8.9940   10.3450   10.8840 C   0  0  0  0  0  1  0  0  0  0  0  0
   -7.6010   10.3670   13.0050 C   0  0  0  0  0  0  0  0  0  0  0  0
   -7.6870   11.2780   13.8870 O   0  0  0  0  0  1  0  0  0  0  0  0
   -6.5500    9.7820   12.6020 O   0  0  0  0  0  0  0  0  0  0  0  0
  1  4  1  0  0  0  0
  2  3  2  0  0  0  0
  2  1  1  0  0  0  0
  5  6  1  0  0  0  0
  5  2  1  0  0  0  0
  7  6  2  0  0  0  0
  8  7  1  0  0  0  0
  9  8  2  0  0  0  0
  9 10  1  0  0  0  0
 10  5  2  0  0  0  0
 11  9  1  0  0  0  0
 12 11  2  0  0  0  0
 12 13  1  0  0  0  0
 13 14  1  0  0  0  0
 13  8  1  0  0  0  0
 14 15  1  0  0  0  0
 14 19  1  0  0  0  0
 16 15  1  0  0  0  0
 16 17  1  0  0  0  0
 18 17  1  0  0  0  0
 19 18  1  0  0  0  0
 20 12  1  0  0  0  0
 21 20  1  0  0  0  0
 22 23  1  0  0  0  0
 22 21  2  0  0  0  0
 23 24  1  0  0  0  0
 24 20  2  0  0  0  0
 25  1  1  0  0  0  0
 25 29  1  6  0  0  0
 26 25  1  0  0  0  0
 27 26  1  0  0  0  0
 28 26  2  0  0  0  0
 29 36  1  0  0  0  0
 30 31  1  0  0  0  0
 31 32  2  0  0  0  0
 33 34  1  0  0  0  0
 33 32  1  0  0  0  0
 34 39  1  0  0  0  0
 35 34  1  0  0  0  0
 36 37  1  0  0  0  0
 36 35  2  0  0  0  0
 37 33  2  0  0  0  0
 38 37  1  0  0  0  0
 38 30  2  0  0  0  0
 40 30  1  0  0  0  0
 42 41  1  0  0  0  0
 42 44  1  0  0  0  0
 42 40  1  0  0  0  0
 43 42  1  0  0  0  0
 44 45  1  0  0  0  0
 46 44  2  0  0  0  0
M  END
>  <minimizedAffinity>
-8.12369537

$$$$
