
 OpenBabel09132204463D

 46 51  0  0  1  0  0  0  0  0999 V2000
   -9.3300    8.1370   13.2960 N   0  0  0  0  0  0  0  0  0  0  0  0
   -9.7980    7.0180   12.6620 C   0  0  0  0  0  0  0  0  0  0  0  0
   -9.6740    5.9050   13.1740 O   0  0  0  0  0  0  0  0  0  0  0  0
   -9.0200    7.9350   14.2370 H   0  0  0  0  0  0  0  0  0  0  0  0
  -10.3380    7.1020   11.2970 C   0  0  0  0  0  0  0  0  0  0  0  0
   -9.4480    7.4170   10.2630 C   0  0  0  0  0  3  0  0  0  0  0  0
   -9.9000    7.5660    8.9510 C   0  0  0  0  0  3  0  0  0  0  0  0
  -11.2640    7.3480    8.7150 C   0  0  0  0  0  0  0  0  0  0  0  0
  -12.1400    6.9500    9.7230 C   0  0  0  0  0  0  0  0  0  0  0  0
  -11.6870    6.8340   11.0470 C   0  0  0  0  0  3  0  0  0  0  0  0
  -13.3870    6.7090    9.2100 N   0  0  0  0  0  0  0  0  0  0  0  0
  -13.3140    6.9590    7.9160 C   0  0  0  0  0  0  0  0  0  0  0  0
  -12.0720    7.4820    7.5980 N   0  0  0  0  0  0  0  0  0  0  0  0
  -11.7020    8.1450    6.3510 C   0  0  0  0  0  3  0  0  0  0  0  0
  -11.3890    9.6460    6.4990 C   0  0  0  0  0  2  0  0  0  0  0  0
  -11.0870   10.2770    5.1410 C   0  0  0  0  0  2  0  0  0  0  0  0
   -9.9650    9.5360    4.4190 C   0  0  0  0  0  2  0  0  0  0  0  0
  -10.2760    8.0510    4.2630 C   0  0  0  0  0  2  0  0  0  0  0  0
  -10.5870    7.3950    5.6080 C   0  0  0  0  0  2  0  0  0  0  0  0
  -14.4720    6.6580    7.0220 C   0  0  0  0  0  0  0  0  0  0  0  0
  -15.3410    7.4960    6.2810 C   0  0  0  0  0  3  0  0  0  0  0  0
  -16.2110    6.6610    5.6180 C   0  0  0  0  0  3  0  0  0  0  0  0
  -15.9250    5.3620    5.8860 O   0  0  0  0  0  0  0  0  0  0  0  0
  -14.8630    5.3670    6.7320 C   0  0  0  0  0  3  0  0  0  0  0  0
   -9.5400    9.6030   13.0460 C   0  0  2  0  0  3  0  0  0  0  0  0
   -8.1900   10.3840   12.9800 C   0  0  0  0  0  0  0  0  0  0  0  0
   -7.4190   10.0240   12.0370 O   0  0  0  0  0  0  0  0  0  0  0  0
   -7.9780   11.2250   13.8980 O   0  0  0  0  0  1  0  0  0  0  0  0
  -10.5470   10.2900   13.9740 C   0  0  0  0  0  2  0  0  0  0  0  0
  -14.9510   10.2270   12.4370 C   0  0  0  0  0  0  0  0  0  0  0  0
  -15.7400    9.2680   13.0680 C   0  0  0  0  0  3  0  0  0  0  0  0
  -15.2240    8.4720   14.0960 C   0  0  0  0  0  3  0  0  0  0  0  0
  -13.8790    8.6570   14.4440 C   0  0  0  0  0  0  0  0  0  0  0  0
  -13.1070    8.0190   15.3860 N   0  0  0  0  0  0  0  0  0  0  0  0
  -11.8280    8.5020   15.3640 C   0  0  0  0  0  3  0  0  0  0  0  0
  -11.7480    9.4840   14.3970 C   0  0  0  0  0  0  0  0  0  0  0  0
  -13.0550    9.5830   13.8050 C   0  0  0  0  0  0  0  0  0  0  0  0
  -13.6020   10.3690   12.7680 C   0  0  0  0  0  3  0  0  0  0  0  0
  -13.4310    7.2800   15.9910 H   0  0  0  0  0  0  0  0  0  0  0  0
  -15.4830   10.9310   11.3920 O   0  0  0  0  0  0  0  0  0  0  0  0
  -14.0600   10.3280    9.4180 C   0  0  0  0  0  1  0  0  0  0  0  0
  -15.4440   10.2900   10.0860 C   0  0  0  0  0  0  0  0  0  0  0  0
  -15.9510    8.8450   10.1690 C   0  0  0  0  0  1  0  0  0  0  0  0
  -16.4050   11.1200    9.1410 C   0  0  0  0  0  0  0  0  0  0  0  0
  -16.9360   12.1550    9.6520 O   0  0  0  0  0  1  0  0  0  0  0  0
  -16.5470   10.6870    7.9570 O   0  0  0  0  0  0  0  0  0  0  0  0
  1  4  1  0  0  0  0
  2  3  2  0  0  0  0
  2  1  1  0  0  0  0
  5  2  1  0  0  0  0
  6  5  2  0  0  0  0
  7  6  1  0  0  0  0
  8  7  2  0  0  0  0
  8  9  1  0  0  0  0
  9 10  2  0  0  0  0
 10  5  1  0  0  0  0
 11  9  1  0  0  0  0
 12 11  2  0  0  0  0
 13 12  1  0  0  0  0
 13  8  1  0  0  0  0
 14 15  1  0  0  0  0
 14 13  1  0  0  0  0
 16 15  1  0  0  0  0
 17 16  1  0  0  0  0
 18 17  1  0  0  0  0
 18 19  1  0  0  0  0
 19 14  1  0  0  0  0
 20 12  1  0  0  0  0
 21 20  1  0  0  0  0
 22 23  1  0  0  0  0
 22 21  2  0  0  0  0
 23 24  1  0  0  0  0
 24 20  2  0  0  0  0
 25  1  1  0  0  0  0
 25 29  1  1  0  0  0
 26 25  1  0  0  0  0
 26 28  1  0  0  0  0
 27 26  2  0  0  0  0
 29 36  1  0  0  0  0
 30 38  2  0  0  0  0
 30 31  1  0  0  0  0
 31 32  2  0  0  0  0
 32 33  1  0  0  0  0
 33 34  1  0  0  0  0
 34 39  1  0  0  0  0
 35 34  1  0  0  0  0
 36 35  2  0  0  0  0
 37 36  1  0  0  0  0
 37 33  2  0  0  0  0
 38 37  1  0  0  0  0
 40 30  1  0  0  0  0
 41 42  1  0  0  0  0
 42 43  1  0  0  0  0
 42 40  1  0  0  0  0
 44 45  1  0  0  0  0
 44 42  1  0  0  0  0
 46 44  2  0  0  0  0
M  END
>  <minimizedAffinity>
-8.73246193

$$$$
