
 OpenBabel09132204463D

 46 51  0  0  1  0  0  0  0  0999 V2000
  -13.4690   11.6320   13.6900 N   0  0  0  0  0  0  0  0  0  0  0  0
  -12.4170   11.9070   12.8590 C   0  0  0  0  0  0  0  0  0  0  0  0
  -11.6050   12.7880   13.1400 O   0  0  0  0  0  0  0  0  0  0  0  0
  -13.3970   12.1300   14.5670 H   0  0  0  0  0  0  0  0  0  0  0  0
  -12.3090   11.2500   11.5480 C   0  0  0  0  0  0  0  0  0  0  0  0
  -11.0810   10.6700   11.2100 C   0  0  0  0  0  3  0  0  0  0  0  0
  -10.8900   10.0760    9.9610 C   0  0  0  0  0  3  0  0  0  0  0  0
  -11.9870   10.0540    9.0880 C   0  0  0  0  0  0  0  0  0  0  0  0
  -13.2370   10.5520    9.4500 C   0  0  0  0  0  0  0  0  0  0  0  0
  -13.4140   11.1780   10.6950 C   0  0  0  0  0  3  0  0  0  0  0  0
  -14.1540   10.3180    8.4600 N   0  0  0  0  0  0  0  0  0  0  0  0
  -13.5060    9.7020    7.4890 C   0  0  0  0  0  0  0  0  0  0  0  0
  -12.1530    9.6440    7.7760 N   0  0  0  0  0  0  0  0  0  0  0  0
  -11.0810    9.3080    6.8440 C   0  0  0  0  0  3  0  0  0  0  0  0
  -11.2500    7.9440    6.1490 C   0  0  0  0  0  2  0  0  0  0  0  0
  -10.0520    7.6360    5.2510 C   0  0  0  0  0  2  0  0  0  0  0  0
   -9.8090    8.7560    4.2430 C   0  0  0  0  0  2  0  0  0  0  0  0
   -9.6330   10.1070    4.9290 C   0  0  0  0  0  2  0  0  0  0  0  0
  -10.8160   10.4370    5.8380 C   0  0  0  0  0  2  0  0  0  0  0  0
  -14.2470    9.1710    6.3060 C   0  0  0  0  0  0  0  0  0  0  0  0
  -14.2190    9.5210    4.9340 C   0  0  0  0  0  3  0  0  0  0  0  0
  -15.0990    8.6720    4.3000 C   0  0  0  0  0  3  0  0  0  0  0  0
  -15.6540    7.8090    5.1870 O   0  0  0  0  0  0  0  0  0  0  0  0
  -15.1260    8.1120    6.4020 C   0  0  0  0  0  3  0  0  0  0  0  0
  -14.4510   10.4970   13.7360 C   0  0  2  0  0  3  0  0  0  0  0  0
  -15.7920   10.9120   14.4190 C   0  0  0  0  0  0  0  0  0  0  0  0
  -16.7890   10.1890   14.1050 O   0  0  0  0  0  0  0  0  0  0  0  0
  -15.7620   11.9480   15.1420 O   0  0  0  0  0  1  0  0  0  0  0  0
  -13.9090    9.1820   14.3060 C   0  0  0  0  0  2  0  0  0  0  0  0
   -9.3380    8.4500   13.7310 C   0  0  0  0  0  0  0  0  0  0  0  0
   -9.0520    7.4780   12.7760 C   0  0  0  0  0  3  0  0  0  0  0  0
  -10.0750    6.8580   12.0490 C   0  0  0  0  0  3  0  0  0  0  0  0
  -11.3930    7.2330   12.3400 C   0  0  0  0  0  0  0  0  0  0  0  0
  -12.5820    6.7900   11.8120 N   0  0  0  0  0  0  0  0  0  0  0  0
  -13.6380    7.4130   12.4180 C   0  0  0  0  0  3  0  0  0  0  0  0
  -13.1440    8.2910   13.3610 C   0  0  0  0  0  0  0  0  0  0  0  0
  -11.7110    8.1760   13.3170 C   0  0  0  0  0  0  0  0  0  0  0  0
  -10.6580    8.7810   14.0380 C   0  0  0  0  0  3  0  0  0  0  0  0
  -12.6660    6.0860   11.0940 H   0  0  0  0  0  0  0  0  0  0  0  0
   -8.3070    8.9750   14.4610 O   0  0  0  0  0  0  0  0  0  0  0  0
   -6.5060    9.4530   12.7830 C   0  0  0  0  0  1  0  0  0  0  0  0
   -7.5050   10.0020   13.8140 C   0  0  0  0  0  0  0  0  0  0  0  0
   -8.3990   11.0680   13.1660 C   0  0  0  0  0  1  0  0  0  0  0  0
   -6.6310   10.6810   14.9460 C   0  0  0  0  0  0  0  0  0  0  0  0
   -5.7720   11.5320   14.5560 O   0  0  0  0  0  0  0  0  0  0  0  0
   -6.8760   10.3270   16.1390 O   0  0  0  0  0  1  0  0  0  0  0  0
  1 25  1  0  0  0  0
  1  4  1  0  0  0  0
  2  3  2  0  0  0  0
  2  1  1  0  0  0  0
  5  2  1  0  0  0  0
  6  5  1  0  0  0  0
  7  6  2  0  0  0  0
  8  9  2  0  0  0  0
  8  7  1  0  0  0  0
  9 10  1  0  0  0  0
 10  5  2  0  0  0  0
 11  9  1  0  0  0  0
 12 13  1  0  0  0  0
 12 11  2  0  0  0  0
 13  8  1  0  0  0  0
 14 13  1  0  0  0  0
 15 14  1  0  0  0  0
 16 15  1  0  0  0  0
 17 18  1  0  0  0  0
 17 16  1  0  0  0  0
 18 19  1  0  0  0  0
 19 14  1  0  0  0  0
 20 24  2  0  0  0  0
 20 12  1  0  0  0  0
 21 20  1  0  0  0  0
 22 21  2  0  0  0  0
 22 23  1  0  0  0  0
 23 24  1  0  0  0  0
 25 29  1  1  0  0  0
 25 26  1  0  0  0  0
 26 28  1  0  0  0  0
 27 26  2  0  0  0  0
 30 38  1  0  0  0  0
 30 40  1  0  0  0  0
 31 30  2  0  0  0  0
 32 33  2  0  0  0  0
 32 31  1  0  0  0  0
 33 37  1  0  0  0  0
 34 33  1  0  0  0  0
 34 35  1  0  0  0  0
 35 36  2  0  0  0  0
 36 29  1  0  0  0  0
 37 36  1  0  0  0  0
 37 38  2  0  0  0  0
 39 34  1  0  0  0  0
 41 42  1  0  0  0  0
 42 40  1  0  0  0  0
 42 44  1  0  0  0  0
 43 42  1  0  0  0  0
 44 46  1  0  0  0  0
 45 44  2  0  0  0  0
M  END
>  <minimizedAffinity>
-8.1318388

$$$$
