
 OpenBabel09122222393D

 24 26  0  0  1  0  0  0  0  0999 V2000
    4.1730   -6.7430    3.5850 C   0  0  2  0  0  3  0  0  0  0  0  0
    5.0790   -7.4240    2.5650 C   0  0  1  0  0  3  0  0  0  0  0  0
    5.7000   -6.2640    1.7940 C   0  0  2  0  0  3  0  0  0  0  0  0
    5.6860   -5.1160    2.6750 O   0  0  0  0  0  0  0  0  0  0  0  0
    4.9910   -5.4800    3.8880 C   0  0  1  0  0  3  0  0  0  0  0  0
    4.1960   -4.3410    4.3000 N   0  0  0  0  0  0  0  0  0  0  0  0
    3.6500   -3.3860    3.4830 C   0  0  0  0  0  3  0  0  0  0  0  0
    2.9570   -2.4930    4.1570 N   0  0  0  0  0  0  0  0  0  0  0  0
    3.0930   -2.8690    5.4780 C   0  0  0  0  0  0  0  0  0  0  0  0
    2.6030   -2.3200    6.6760 C   0  0  0  0  0  0  0  0  0  0  0  0
    1.8220   -1.1880    6.7190 N   0  0  0  0  0  0  0  0  0  0  0  0
    2.9100   -2.9350    7.8410 N   0  0  0  0  0  0  0  0  0  0  0  0
    3.6750   -4.0470    7.7960 C   0  0  0  0  0  3  0  0  0  0  0  0
    4.1910   -4.6670    6.7160 N   0  0  0  0  0  0  0  0  0  0  0  0
    3.8630   -4.0160    5.5880 C   0  0  0  0  0  0  0  0  0  0  0  0
    1.6100   -0.7060    5.8580 H   0  0  0  0  0  0  0  0  0  0  0  0
    1.5350   -0.8410    7.6200 H   0  0  0  0  0  0  0  0  0  0  0  0
    2.6840   -8.2420    4.6980 C   0  0  0  0  0  1  0  0  0  0  0  0
    3.9770   -7.6510    4.6790 O   0  0  0  0  0  0  0  0  0  0  0  0
    6.1160   -8.1440    3.2550 O   0  0  0  0  0  0  0  0  0  0  0  0
    5.6680   -8.5760    4.0120 H   0  0  0  0  0  0  0  0  0  0  0  0
    4.9440   -5.9100    0.5100 C   0  0  0  0  0  2  0  0  0  0  0  0
    5.7200   -6.2120   -0.6490 O   0  0  0  0  0  0  0  0  0  0  0  0
    5.1500   -6.0330   -1.4200 H   0  0  0  0  0  0  0  0  0  0  0  0
  1  5  1  0  0  0  0
  1 19  1  1  0  0  0
  2 20  1  1  0  0  0
  2  1  1  0  0  0  0
  3 22  1  6  0  0  0
  3  2  1  0  0  0  0
  3  4  1  0  0  0  0
  4  5  1  0  0  0  0
  5  6  1  6  0  0  0
  6 15  1  0  0  0  0
  7  8  2  0  0  0  0
  7  6  1  0  0  0  0
  8  9  1  0  0  0  0
  9 15  2  0  0  0  0
  9 10  1  0  0  0  0
 10 11  1  0  0  0  0
 10 12  2  0  0  0  0
 11 17  1  0  0  0  0
 13 12  1  0  0  0  0
 14 13  2  0  0  0  0
 15 14  1  0  0  0  0
 16 11  1  0  0  0  0
 19 18  1  0  0  0  0
 20 21  1  0  0  0  0
 23 22  1  0  0  0  0
 24 23  1  0  0  0  0
M  END
>  <minimizedAffinity>
-5.94229507

$$$$
