
 OpenBabel09122222393D

 24 26  0  0  1  0  0  0  0  0999 V2000
    3.7780   -3.5860    5.4480 C   0  0  2  0  0  3  0  0  0  0  0  0
    4.3890   -2.9850    6.7090 C   0  0  1  0  0  3  0  0  0  0  0  0
    5.5000   -3.9620    7.0800 C   0  0  2  0  0  3  0  0  0  0  0  0
    5.9020   -4.6270    5.8590 O   0  0  0  0  0  0  0  0  0  0  0  0
    5.0260   -4.1950    4.7940 C   0  0  1  0  0  3  0  0  0  0  0  0
    4.7560   -5.3430    3.9520 N   0  0  0  0  0  0  0  0  0  0  0  0
    3.7740   -6.2800    4.1370 C   0  0  0  0  0  3  0  0  0  0  0  0
    3.7670   -7.1880    3.1830 N   0  0  0  0  0  0  0  0  0  0  0  0
    4.8210   -6.8400    2.3630 C   0  0  0  0  0  0  0  0  0  0  0  0
    5.3390   -7.4140    1.1890 C   0  0  0  0  0  0  0  0  0  0  0  0
    4.8130   -8.5470    0.6110 N   0  0  0  0  0  0  0  0  0  0  0  0
    6.4030   -6.8250    0.5970 N   0  0  0  0  0  0  0  0  0  0  0  0
    6.9170   -5.7120    1.1630 C   0  0  0  0  0  3  0  0  0  0  0  0
    6.5030   -5.0690    2.2740 N   0  0  0  0  0  0  0  0  0  0  0  0
    5.4510   -5.6960    2.8270 C   0  0  0  0  0  0  0  0  0  0  0  0
    4.0370   -9.0110    1.0610 H   0  0  0  0  0  0  0  0  0  0  0  0
    5.2600   -8.9140   -0.2140 H   0  0  0  0  0  0  0  0  0  0  0  0
    1.8320   -2.2220    5.2080 C   0  0  0  0  0  1  0  0  0  0  0  0
    3.1320   -2.5290    4.7220 O   0  0  0  0  0  0  0  0  0  0  0  0
    4.9680   -1.7060    6.3950 O   0  0  0  0  0  0  0  0  0  0  0  0
    4.3220   -1.2710    5.8000 H   0  0  0  0  0  0  0  0  0  0  0  0
    5.0660   -5.0210    8.0980 C   0  0  0  0  0  2  0  0  0  0  0  0
    6.1890   -5.7360    8.6140 O   0  0  0  0  0  0  0  0  0  0  0  0
    5.8460   -6.3330    9.3040 H   0  0  0  0  0  0  0  0  0  0  0  0
  1 19  1  6  0  0  0
  1  2  1  0  0  0  0
  2 20  1  6  0  0  0
  2  3  1  0  0  0  0
  3 22  1  1  0  0  0
  4  3  1  0  0  0  0
  5  6  1  6  0  0  0
  5  1  1  0  0  0  0
  5  4  1  0  0  0  0
  6  7  1  0  0  0  0
  8  7  2  0  0  0  0
  9 15  1  0  0  0  0
  9  8  1  0  0  0  0
 10  9  2  0  0  0  0
 11 16  1  0  0  0  0
 11 10  1  0  0  0  0
 12 13  2  0  0  0  0
 12 10  1  0  0  0  0
 13 14  1  0  0  0  0
 14 15  2  0  0  0  0
 15  6  1  0  0  0  0
 17 11  1  0  0  0  0
 19 18  1  0  0  0  0
 21 20  1  0  0  0  0
 22 23  1  0  0  0  0
 23 24  1  0  0  0  0
M  END
>  <minimizedAffinity>
-5.94943094

$$$$
