
 OpenBabel09122222393D

 24 26  0  0  1  0  0  0  0  0999 V2000
    2.4610   -5.0930    4.8810 C   0  0  2  0  0  3  0  0  0  0  0  0
    2.3810   -5.2400    6.3960 C   0  0  1  0  0  3  0  0  0  0  0  0
    3.4980   -6.2230    6.7290 C   0  0  2  0  0  3  0  0  0  0  0  0
    4.4840   -6.1150    5.6740 O   0  0  0  0  0  0  0  0  0  0  0  0
    3.9760   -5.2120    4.6670 C   0  0  1  0  0  3  0  0  0  0  0  0
    4.3550   -5.7380    3.3720 N   0  0  0  0  0  0  0  0  0  0  0  0
    5.0810   -5.0900    2.4060 C   0  0  0  0  0  3  0  0  0  0  0  0
    5.2850   -5.8450    1.3480 N   0  0  0  0  0  0  0  0  0  0  0  0
    4.6280   -7.0260    1.6290 C   0  0  0  0  0  0  0  0  0  0  0  0
    4.4630   -8.2170    0.9000 C   0  0  0  0  0  0  0  0  0  0  0  0
    4.9940   -8.4090   -0.3540 N   0  0  0  0  0  0  0  0  0  0  0  0
    3.7530   -9.2230    1.4590 N   0  0  0  0  0  0  0  0  0  0  0  0
    3.2340   -9.0330    2.6910 C   0  0  0  0  0  3  0  0  0  0  0  0
    3.3320   -7.9470    3.4840 N   0  0  0  0  0  0  0  0  0  0  0  0
    4.0400   -6.9770    2.8830 C   0  0  0  0  0  0  0  0  0  0  0  0
    5.5020   -7.6550   -0.7930 H   0  0  0  0  0  0  0  0  0  0  0  0
    4.8070   -9.2810   -0.8240 H   0  0  0  0  0  0  0  0  0  0  0  0
    2.8140   -2.8510    4.1360 C   0  0  0  0  0  1  0  0  0  0  0  0
    1.8660   -3.8350    4.5260 O   0  0  0  0  0  0  0  0  0  0  0  0
    2.6650   -3.9720    7.0140 O   0  0  0  0  0  0  0  0  0  0  0  0
    2.1900   -3.3100    6.4700 H   0  0  0  0  0  0  0  0  0  0  0  0
    3.0260   -7.6780    6.8150 C   0  0  0  0  0  2  0  0  0  0  0  0
    4.0140   -8.5750    6.3110 O   0  0  0  0  0  0  0  0  0  0  0  0
    3.6780   -9.4770    6.4680 H   0  0  0  0  0  0  0  0  0  0  0  0
  1 19  1  1  0  0  0
  1  2  1  0  0  0  0
  2  3  1  0  0  0  0
  2 20  1  1  0  0  0
  3 22  1  6  0  0  0
  4  3  1  0  0  0  0
  5  6  1  6  0  0  0
  5  1  1  0  0  0  0
  5  4  1  0  0  0  0
  7  6  1  0  0  0  0
  8  9  1  0  0  0  0
  8  7  2  0  0  0  0
  9 15  1  0  0  0  0
 10 12  1  0  0  0  0
 10  9  2  0  0  0  0
 11 10  1  0  0  0  0
 12 13  2  0  0  0  0
 13 14  1  0  0  0  0
 15  6  1  0  0  0  0
 15 14  2  0  0  0  0
 16 11  1  0  0  0  0
 17 11  1  0  0  0  0
 18 19  1  0  0  0  0
 21 20  1  0  0  0  0
 23 24  1  0  0  0  0
 23 22  1  0  0  0  0
M  END
>  <minimizedAffinity>
-5.49983644

$$$$
