
 OpenBabel09122222393D

 24 26  0  0  1  0  0  0  0  0999 V2000
    4.8670   -3.9820    5.0850 C   0  0  2  0  0  3  0  0  0  0  0  0
    3.8760   -3.2730    6.0010 C   0  0  1  0  0  3  0  0  0  0  0  0
    2.5240   -3.5200    5.3400 C   0  0  2  0  0  3  0  0  0  0  0  0
    2.6480   -4.7390    4.5680 O   0  0  0  0  0  0  0  0  0  0  0  0
    4.0230   -5.1800    4.6300 C   0  0  1  0  0  3  0  0  0  0  0  0
    4.3790   -5.6980    3.3250 N   0  0  0  0  0  0  0  0  0  0  0  0
    5.0170   -5.0180    2.3210 C   0  0  0  0  0  3  0  0  0  0  0  0
    5.2240   -5.7730    1.2630 N   0  0  0  0  0  0  0  0  0  0  0  0
    4.6600   -6.9900    1.5870 C   0  0  0  0  0  0  0  0  0  0  0  0
    4.5430   -8.1990    0.8790 C   0  0  0  0  0  0  0  0  0  0  0  0
    5.0300   -8.3740   -0.3950 N   0  0  0  0  0  0  0  0  0  0  0  0
    3.9260   -9.2420    1.4810 N   0  0  0  0  0  0  0  0  0  0  0  0
    3.4510   -9.0700    2.7320 C   0  0  0  0  0  3  0  0  0  0  0  0
    3.5110   -7.9680    3.5080 N   0  0  0  0  0  0  0  0  0  0  0  0
    4.1260   -6.9620    2.8650 C   0  0  0  0  0  0  0  0  0  0  0  0
    5.4670   -7.5940   -0.8640 H   0  0  0  0  0  0  0  0  0  0  0  0
    4.8810   -9.2620   -0.8460 H   0  0  0  0  0  0  0  0  0  0  0  0
    6.9550   -3.2020    5.9450 C   0  0  0  0  0  1  0  0  0  0  0  0
    6.0410   -4.2870    5.8540 O   0  0  0  0  0  0  0  0  0  0  0  0
    3.8920   -3.9000    7.2960 O   0  0  0  0  0  0  0  0  0  0  0  0
    4.8380   -4.0700    7.4870 H   0  0  0  0  0  0  0  0  0  0  0  0
    2.0850   -2.3880    4.4070 C   0  0  0  0  0  2  0  0  0  0  0  0
    0.9990   -1.6480    4.9640 O   0  0  0  0  0  0  0  0  0  0  0  0
    0.8280   -0.9050    4.3560 H   0  0  0  0  0  0  0  0  0  0  0  0
  1 19  1  1  0  0  0
  1  2  1  0  0  0  0
  2 20  1  1  0  0  0
  3 22  1  6  0  0  0
  3  2  1  0  0  0  0
  4  5  1  0  0  0  0
  4  3  1  0  0  0  0
  5  6  1  6  0  0  0
  5  1  1  0  0  0  0
  7  6  1  0  0  0  0
  8  9  1  0  0  0  0
  8  7  2  0  0  0  0
  9 15  1  0  0  0  0
 10 12  1  0  0  0  0
 10  9  2  0  0  0  0
 11 10  1  0  0  0  0
 12 13  2  0  0  0  0
 13 14  1  0  0  0  0
 15  6  1  0  0  0  0
 15 14  2  0  0  0  0
 16 11  1  0  0  0  0
 17 11  1  0  0  0  0
 19 18  1  0  0  0  0
 20 21  1  0  0  0  0
 22 23  1  0  0  0  0
 24 23  1  0  0  0  0
M  END
>  <minimizedAffinity>
-6.27862787

$$$$
