
 OpenBabel09122222393D

 46 48  0  0  1  0  0  0  0  0999 V2000
    1.9880  -11.2470    2.7410 C   0  0  2  0  0  3  0  0  0  0  0  0
    2.9070  -11.5980    3.6240 N   0  0  0  0  0  0  0  0  0  0  0  0
    4.4410  -10.9910    3.5160 S   0  0  0  0  0  0  0  0  0  0  0  0
    4.6730   -9.9720    4.5090 O   0  0  0  0  0  0  0  0  0  0  0  0
    5.3560  -12.1040    3.3760 O   0  0  0  0  0  0  0  0  0  0  0  0
    4.4100  -10.2230    1.9140 C   0  0  0  0  0  0  0  0  0  0  0  0
    5.0380   -8.5450    1.6110 C   0  0  0  0  0  3  0  0  0  0  0  0
    4.5880   -7.7000    0.0800 C   0  0  0  0  0  0  0  0  0  0  0  0
    3.4910   -8.5070   -1.1440 C   0  0  0  0  0  3  0  0  0  0  0  0
    2.7570  -10.1170   -0.7620 C   0  0  0  0  0  3  0  0  0  0  0  0
    3.2110  -10.9680    0.7680 C   0  0  0  0  0  0  0  0  0  0  0  0
    2.2370  -11.8080    1.4390 N   0  0  0  0  0  0  0  0  0  0  0  0
    3.0080  -12.5960    3.7290 H   0  0  0  0  0  0  0  0  0  0  0  0
    1.4280  -11.9740    0.8360 H   0  0  0  0  0  0  0  0  0  0  0  0
   -0.8180  -10.0140    3.5310 N   0  0  0  0  0  0  0  0  0  0  0  0
    0.0130   -9.7640    2.2640 C   0  0  0  0  0  0  0  0  0  0  0  0
   -0.3890   -9.5020    1.1410 O   0  0  0  0  0  0  0  0  0  0  0  0
    1.4820   -9.8320    2.5790 C   0  0  1  0  0  3  0  0  0  0  0  0
    1.8000   -8.8480    3.4460 C   0  0  1  0  0  3  0  0  0  0  0  0
    0.7370   -7.9290    3.8800 C   0  0  1  0  0  3  0  0  0  0  0  0
    0.9920   -6.5950    4.1980 C   0  0  0  0  0  3  0  0  0  0  0  0
   -0.0700   -5.7570    4.5100 C   0  0  0  0  0  3  0  0  0  0  0  0
   -1.3500   -6.2780    4.4730 C   0  0  0  0  0  3  0  0  0  0  0  0
   -1.6290   -7.5690    4.1820 N   0  0  0  0  0  0  0  0  0  0  0  0
   -0.5950   -8.4210    3.9630 C   0  0  0  0  0  0  0  0  0  0  0  0
    2.9830   -8.7740    4.1460 O   0  0  0  0  0  0  0  0  0  0  0  0
    3.7160   -9.0330    3.5590 H   0  0  0  0  0  0  0  0  0  0  0  0
   -1.8720  -11.6200    4.3970 C   0  0  0  0  0  1  0  0  0  0  0  0
   -3.5870  -12.0120    4.5030 C   0  0  0  0  0  2  0  0  0  0  0  0
   -4.0420  -11.6950    1.9800 C   0  0  0  0  0  1  0  0  0  0  0  0
   -4.4170  -11.2830    3.4050 C   0  0  0  0  0  3  0  0  0  0  0  0
   -5.9090  -11.5470    3.6320 C   0  0  0  0  0  1  0  0  0  0  0  0
    4.9780   -6.3290   -0.0170 N   0  0  0  0  0  0  0  0  0  0  0  0
    6.0010   -6.2680    0.0270 H   0  0  0  0  0  0  0  0  0  0  0  0
    4.3770   -5.1930    1.0640 S   0  0  0  0  0  0  0  0  0  0  0  0
    3.0940   -5.6310    1.5510 O   0  0  0  0  0  0  0  0  0  0  0  0
    5.4570   -4.9170    1.9810 O   0  0  0  0  0  0  0  0  0  0  0  0
    4.2470   -3.8810    0.0900 N   0  0  0  0  0  0  0  0  0  0  0  0
    4.1390   -2.5490    0.4490 C   0  0  0  0  0  0  0  0  0  0  0  0
    4.0340   -1.6890   -0.4110 O   0  0  0  0  0  0  0  0  0  0  0  0
    4.3670   -4.0810   -0.8960 H   0  0  0  0  0  0  0  0  0  0  0  0
    4.1010   -2.3000    1.7750 O   0  0  0  0  0  0  0  0  0  0  0  0
    4.7110   -3.2730    2.6320 C   0  0  0  0  0  2  0  0  0  0  0  0
    4.3960   -2.8980    4.0760 C   0  0  0  0  0  2  0  0  0  0  0  0
    2.8980   -2.7030    4.2430 C   0  0  0  0  0  2  0  0  0  0  0  0
    1.6550   -2.5410    4.3820 N   0  0  0  0  0  1  0  0  0  0  0  0
  1 12  1  6  0  0  0
  1  2  1  0  0  0  0
  2 13  1  0  0  0  0
  3  2  1  0  0  0  0
  3  4  2  0  0  0  0
  5  3  2  0  0  0  0
  6  3  1  0  0  0  0
  7  6  1  0  0  0  0
  8  7  2  0  0  0  0
  9 10  2  0  0  0  0
  9  8  1  0  0  0  0
 10 11  1  0  0  0  0
 11 12  1  0  0  0  0
 11  6  2  0  0  0  0
 14 12  1  0  0  0  0
 15 25  2  0  0  0  0
 16 15  1  0  0  0  0
 17 16  2  0  0  0  0
 18 16  1  1  0  0  0
 18  1  1  0  0  0  0
 18 19  1  0  0  0  0
 19 20  1  0  0  0  0
 19 26  1  1  0  0  0
 20 25  1  0  0  0  0
 20 21  1  6  0  0  0
 21 22  2  0  0  0  0
 23 22  1  0  0  0  0
 24 23  2  0  0  0  0
 25 24  1  0  0  0  0
 27 26  1  0  0  0  0
 28 29  1  0  0  0  0
 30 31  1  0  0  0  0
 31 32  1  0  0  0  0
 31 29  1  0  0  0  0
 33 34  1  0  0  0  0
 33  8  1  0  0  0  0
 33 35  1  0  0  0  0
 35 36  2  0  0  0  0
 35 37  2  0  0  0  0
 38 39  1  0  0  0  0
 38 35  1  0  0  0  0
 39 42  1  0  0  0  0
 40 39  2  0  0  0  0
 41 38  1  0  0  0  0
 42 43  1  0  0  0  0
 43 44  1  0  0  0  0
 44 45  1  0  0  0  0
 45 46  1  0  0  0  0
M  END
>  <minimizedAffinity>
33.532177

$$$$
