
 OpenBabel09122222393D

 38 42  0  0  1  0  0  0  0  0999 V2000
    3.2040   -2.6730    8.1020 N   0  0  0  0  0  0  0  0  0  0  0  0
    3.2600   -2.9060    6.7390 C   0  0  0  0  0  0  0  0  0  0  0  0
    4.2810   -3.8360    6.5170 C   0  0  0  0  0  0  0  0  0  0  0  0
    4.8980   -4.1060    7.7830 C   0  0  0  0  0  0  0  0  0  0  0  0
    5.9770   -4.9160    8.2030 C   0  0  0  0  0  3  0  0  0  0  0  0
    6.3540   -4.9470    9.5520 C   0  0  0  0  0  3  0  0  0  0  0  0
    5.6740   -4.1930   10.5110 C   0  0  0  0  0  0  0  0  0  0  0  0
    4.5800   -3.4140   10.1040 C   0  0  0  0  0  3  0  0  0  0  0  0
    4.2120   -3.3710    8.7460 C   0  0  0  0  0  0  0  0  0  0  0  0
    2.3890   -2.2910    5.7330 C   0  0  0  0  0  0  0  0  0  0  0  0
    2.5860   -2.5210    4.3700 C   0  0  0  0  0  3  0  0  0  0  0  0
    1.8620   -1.7920    3.4230 C   0  0  0  0  0  3  0  0  0  0  0  0
    0.9460   -0.8220    3.8310 C   0  0  0  0  0  3  0  0  0  0  0  0
    0.7270   -0.6000    5.1890 C   0  0  0  0  0  3  0  0  0  0  0  0
    1.4380   -1.3400    6.1340 C   0  0  0  0  0  3  0  0  0  0  0  0
    4.6540   -4.4540    5.1820 C   0  0  0  0  0  3  0  0  0  0  0  0
    3.4250   -4.8700    4.3580 C   0  0  0  0  0  2  0  0  0  0  0  0
    3.8290   -5.5140    3.0320 C   0  0  0  0  0  2  0  0  0  0  0  0
    4.7660   -4.6150    2.2310 C   0  0  0  0  0  2  0  0  0  0  0  0
    5.9930   -4.2150    3.0440 C   0  0  0  0  0  2  0  0  0  0  0  0
    5.6030   -3.5590    4.3670 C   0  0  0  0  0  2  0  0  0  0  0  0
    6.1030   -4.1970   11.9660 C   0  0  0  0  0  0  0  0  0  0  0  0
    6.3150   -5.3350   12.4950 O   0  0  0  0  0  0  0  0  0  0  0  0
    6.2020   -3.0720   12.5460 O   0  0  0  0  0  1  0  0  0  0  0  0
    2.2030   -1.8970    8.8290 C   0  0  0  0  0  2  0  0  0  0  0  0
    2.7110   -1.1880   11.2120 N   0  0  0  0  0  0  0  0  0  0  0  0
    2.2930   -2.4740   11.7670 C   0  0  0  0  0  1  0  0  0  0  0  0
    2.6940   -0.8930    9.8520 C   0  0  0  0  0  0  0  0  0  0  0  0
    3.0110    0.2430    9.4690 O   0  0  0  0  0  0  0  0  0  0  0  0
    3.1120   -0.1510   12.1630 C   0  0  0  0  0  2  0  0  0  0  0  0
    6.3490    0.9800    8.5100 C   0  0  0  0  0  1  0  0  0  0  0  0
    6.0280    1.1690    9.9690 N   0  0  0  0  0  4  0  0  0  0  0  0
    5.9150    2.6220   10.3230 C   0  0  0  0  0  2  0  0  0  0  0  0
    5.6570    2.7560   11.8130 C   0  0  0  0  0  2  0  0  0  0  0  0
    4.3940    2.0080   12.2180 C   0  0  0  0  0  2  0  0  0  0  0  0
    4.4640    0.5200   11.8340 C   0  0  2  0  0  3  0  0  0  0  0  0
    4.8080    0.3570   10.3490 C   0  0  0  0  0  2  0  0  0  0  0  0
    6.8100    0.7600   10.4970 H   0  0  0  0  0  0  0  0  0  0  0  0
  1  9  1  0  0  0  0
  1 25  1  0  0  0  0
  2  1  1  0  0  0  0
  3  2  2  0  0  0  0
  3  4  1  0  0  0  0
  4  5  2  0  0  0  0
  4  9  1  0  0  0  0
  5  6  1  0  0  0  0
  6  7  2  0  0  0  0
  7 22  1  0  0  0  0
  8  7  1  0  0  0  0
  9  8  2  0  0  0  0
 10 15  1  0  0  0  0
 10  2  1  0  0  0  0
 11 10  2  0  0  0  0
 12 13  2  0  0  0  0
 12 11  1  0  0  0  0
 13 14  1  0  0  0  0
 14 15  2  0  0  0  0
 16  3  1  0  0  0  0
 17 16  1  0  0  0  0
 18 17  1  0  0  0  0
 19 18  1  0  0  0  0
 19 20  1  0  0  0  0
 20 21  1  0  0  0  0
 21 16  1  0  0  0  0
 22 23  2  0  0  0  0
 22 24  1  0  0  0  0
 25 28  1  0  0  0  0
 26 27  1  0  0  0  0
 26 30  1  0  0  0  0
 28 26  1  0  0  0  0
 29 28  2  0  0  0  0
 31 32  1  0  0  0  0
 32 33  1  0  0  0  0
 32 37  1  0  0  0  0
 32 38  1  0  0  0  0
 33 34  1  0  0  0  0
 34 35  1  0  0  0  0
 36 30  1  6  0  0  0
 36 35  1  0  0  0  0
 37 36  1  0  0  0  0
M  END
>  <minimizedAffinity>
-2.809057

$$$$
