
 OpenBabel09122222393D

 38 42  0  0  1  0  0  0  0  0999 V2000
    4.0930   -1.2390    9.0480 N   0  0  0  0  0  0  0  0  0  0  0  0
    3.4390   -2.3720    9.4990 C   0  0  0  0  0  0  0  0  0  0  0  0
    3.1760   -2.1880   10.8600 C   0  0  0  0  0  0  0  0  0  0  0  0
    3.7610   -0.9370   11.2450 C   0  0  0  0  0  0  0  0  0  0  0  0
    3.8580   -0.2240   12.4610 C   0  0  0  0  0  3  0  0  0  0  0  0
    4.5320    1.0040   12.5090 C   0  0  0  0  0  3  0  0  0  0  0  0
    5.1100    1.5570   11.3640 C   0  0  0  0  0  0  0  0  0  0  0  0
    4.9850    0.8700   10.1470 C   0  0  0  0  0  3  0  0  0  0  0  0
    4.3230   -0.3710   10.1030 C   0  0  0  0  0  0  0  0  0  0  0  0
    3.0830   -3.5330    8.6780 C   0  0  0  0  0  0  0  0  0  0  0  0
    4.0610   -4.4120    8.2080 C   0  0  0  0  0  3  0  0  0  0  0  0
    3.7270   -5.4080    7.2870 C   0  0  0  0  0  3  0  0  0  0  0  0
    2.4170   -5.5250    6.8200 C   0  0  0  0  0  3  0  0  0  0  0  0
    1.4290   -4.6660    7.2980 C   0  0  0  0  0  3  0  0  0  0  0  0
    1.7610   -3.6820    8.2310 C   0  0  0  0  0  3  0  0  0  0  0  0
    2.4020   -3.1360   11.7580 C   0  0  0  0  0  3  0  0  0  0  0  0
    0.8810   -3.0080   11.5810 C   0  0  0  0  0  2  0  0  0  0  0  0
    0.1260   -3.9530   12.5160 C   0  0  0  0  0  2  0  0  0  0  0  0
    0.5930   -5.3970   12.3570 C   0  0  0  0  0  2  0  0  0  0  0  0
    2.1010   -5.5240   12.5480 C   0  0  0  0  0  2  0  0  0  0  0  0
    2.8680   -4.5950   11.6100 C   0  0  0  0  0  2  0  0  0  0  0  0
    5.8700    2.8690   11.4220 C   0  0  0  0  0  0  0  0  0  0  0  0
    5.9760    3.5140   10.3300 O   0  0  0  0  0  0  0  0  0  0  0  0
    6.3550    3.2110   12.5430 O   0  0  0  0  0  1  0  0  0  0  0  0
    4.4350   -0.9000    7.6690 C   0  0  0  0  0  2  0  0  0  0  0  0
    2.9570   -1.8100    5.8190 N   0  0  0  0  0  0  0  0  0  0  0  0
    1.9880   -0.7230    5.9520 C   0  0  0  0  0  1  0  0  0  0  0  0
    4.1090   -1.9130    6.5910 C   0  0  0  0  0  0  0  0  0  0  0  0
    4.8500   -2.8990    6.4550 O   0  0  0  0  0  0  0  0  0  0  0  0
    2.6470   -2.8630    4.8520 C   0  0  0  0  0  2  0  0  0  0  0  0
    4.6860   -5.5250    1.1300 C   0  0  0  0  0  1  0  0  0  0  0  0
    4.9200   -4.9540    2.5030 N   0  0  0  0  0  4  0  0  0  0  0  0
    6.1250   -4.0620    2.5300 C   0  0  0  0  0  2  0  0  0  0  0  0
    6.3530   -3.5680    3.9470 C   0  0  0  0  0  2  0  0  0  0  0  0
    5.1290   -2.8290    4.4710 C   0  0  0  0  0  2  0  0  0  0  0  0
    3.8670   -3.7070    4.4220 C   0  0  2  0  0  3  0  0  0  0  0  0
    3.6620   -4.2880    3.0170 C   0  0  0  0  0  2  0  0  0  0  0  0
    5.0870   -5.7530    3.1290 H   0  0  0  0  0  0  0  0  0  0  0  0
  1  2  1  0  0  0  0
  1  9  1  0  0  0  0
  2  3  2  0  0  0  0
  3  4  1  0  0  0  0
  3 16  1  0  0  0  0
  4  5  1  0  0  0  0
  5  6  2  0  0  0  0
  7 22  1  0  0  0  0
  7  6  1  0  0  0  0
  8  7  2  0  0  0  0
  9  8  1  0  0  0  0
  9  4  2  0  0  0  0
 10  2  1  0  0  0  0
 11 10  2  0  0  0  0
 12 11  1  0  0  0  0
 13 12  2  0  0  0  0
 13 14  1  0  0  0  0
 14 15  2  0  0  0  0
 15 10  1  0  0  0  0
 17 16  1  0  0  0  0
 17 18  1  0  0  0  0
 19 18  1  0  0  0  0
 19 20  1  0  0  0  0
 21 16  1  0  0  0  0
 21 20  1  0  0  0  0
 22 24  1  0  0  0  0
 23 22  2  0  0  0  0
 25  1  1  0  0  0  0
 26 27  1  0  0  0  0
 26 28  1  0  0  0  0
 28 25  1  0  0  0  0
 29 28  2  0  0  0  0
 30 26  1  0  0  0  0
 31 32  1  0  0  0  0
 32 33  1  0  0  0  0
 32 37  1  0  0  0  0
 32 38  1  0  0  0  0
 33 34  1  0  0  0  0
 34 35  1  0  0  0  0
 36 35  1  0  0  0  0
 36 30  1  6  0  0  0
 37 36  1  0  0  0  0
M  END
>  <minimizedAffinity>
-2.04158139

$$$$
