
 OpenBabel09122223533D

 31 34  0  0  1  0  0  0  0  0999 V2000
    3.2930   -4.9970    7.7000 N   0  0  0  0  0  0  0  0  0  0  0  0
    3.6360   -5.7650    6.5960 C   0  0  0  0  0  0  0  0  0  0  0  0
    4.1010   -6.9070    6.6810 O   0  0  0  0  0  0  0  0  0  0  0  0
    3.4030   -5.2170    5.2230 C   0  0  0  0  0  0  0  0  0  0  0  0
    2.9090   -3.9730    5.1000 C   0  0  0  0  0  0  0  0  0  0  0  0
    2.6710   -3.1120    6.2720 C   0  0  0  0  0  0  0  0  0  0  0  0
    2.3190   -1.7540    6.1360 C   0  0  0  0  0  3  0  0  0  0  0  0
    2.0640   -0.9600    7.2530 C   0  0  0  0  0  3  0  0  0  0  0  0
    2.1710   -1.5050    8.5220 C   0  0  0  0  0  3  0  0  0  0  0  0
    2.5580   -2.8380    8.6750 C   0  0  0  0  0  3  0  0  0  0  0  0
    2.8270   -3.6530    7.5620 C   0  0  0  0  0  0  0  0  0  0  0  0
    3.7160   -6.1250    4.0530 C   0  0  2  0  0  3  0  0  0  0  0  0
    3.5020   -7.4150    4.1370 N   0  0  0  0  0  0  0  0  0  0  0  0
    3.7680   -8.5070    2.9950 S   0  0  0  0  0  0  0  0  0  0  0  0
    4.8050   -9.4180    3.4400 O   0  0  0  0  0  0  0  0  0  0  0  0
    2.4970   -9.0370    2.5390 O   0  0  0  0  0  0  0  0  0  0  0  0
    4.4470   -7.6480    1.6150 C   0  0  0  0  0  0  0  0  0  0  0  0
    4.8030   -8.3630    0.4650 C   0  0  0  0  0  3  0  0  0  0  0  0
    5.3380   -7.6770   -0.6210 C   0  0  0  0  0  3  0  0  0  0  0  0
    5.5110   -6.2950   -0.5490 C   0  0  0  0  0  3  0  0  0  0  0  0
    5.1500   -5.5980    0.6090 C   0  0  0  0  0  3  0  0  0  0  0  0
    4.6120   -6.2720    1.7080 C   0  0  0  0  0  0  0  0  0  0  0  0
    4.2520   -5.5870    2.8610 N   0  0  0  0  0  0  0  0  0  0  0  0
    3.1280   -7.7730    5.0110 H   0  0  0  0  0  0  0  0  0  0  0  0
    4.4030   -4.5760    2.8850 H   0  0  0  0  0  0  0  0  0  0  0  0
    2.5680   -3.4670    3.8520 O   0  0  0  0  0  0  0  0  0  0  0  0
    1.8140   -2.8580    3.9640 H   0  0  0  0  0  0  0  0  0  0  0  0
    3.4640   -5.5990    9.0300 C   0  0  0  0  0  2  0  0  0  0  0  0
    2.4060   -6.6620    9.3620 C   0  0  0  0  0  2  0  0  0  0  0  0
    0.2580   -7.0300    8.0340 C   0  0  0  0  0  1  0  0  0  0  0  0
    0.9560   -6.2310    9.1250 C   0  0  0  0  0  2  0  0  0  0  0  0
  1 28  1  0  0  0  0
  2  3  2  0  0  0  0
  2  1  1  0  0  0  0
  4  2  1  0  0  0  0
  5  4  2  0  0  0  0
  5  6  1  0  0  0  0
  6 11  1  0  0  0  0
  7  6  2  0  0  0  0
  7  8  1  0  0  0  0
  8  9  2  0  0  0  0
  9 10  1  0  0  0  0
 11  1  1  0  0  0  0
 11 10  2  0  0  0  0
 12 13  1  0  0  0  0
 12  4  1  1  0  0  0
 13 24  1  0  0  0  0
 14 15  2  0  0  0  0
 14 13  1  0  0  0  0
 16 14  2  0  0  0  0
 17 22  1  0  0  0  0
 17 14  1  0  0  0  0
 18 17  2  0  0  0  0
 19 20  2  0  0  0  0
 19 18  1  0  0  0  0
 20 21  1  0  0  0  0
 21 22  2  0  0  0  0
 22 23  1  0  0  0  0
 23 25  1  0  0  0  0
 23 12  1  0  0  0  0
 26 27  1  0  0  0  0
 26  5  1  0  0  0  0
 28 29  1  0  0  0  0
 30 31  1  0  0  0  0
 31 29  1  0  0  0  0
M  END
>  <minimizedAffinity>
-7.58838749

$$$$

 OpenBabel09122223533D

 31 34  0  0  1  0  0  0  0  0999 V2000
    3.8660   -8.0590    2.9290 N   0  0  0  0  0  0  0  0  0  0  0  0
    3.5780   -7.2860    4.0430 C   0  0  0  0  0  0  0  0  0  0  0  0
    2.9950   -7.7230    5.0410 O   0  0  0  0  0  0  0  0  0  0  0  0
    4.0210   -5.8560    4.0760 C   0  0  0  0  0  0  0  0  0  0  0  0
    4.6470   -5.3490    3.0000 C   0  0  0  0  0  0  0  0  0  0  0  0
    4.8330   -6.1360    1.7680 C   0  0  0  0  0  0  0  0  0  0  0  0
    5.3310   -5.5540    0.5850 C   0  0  0  0  0  3  0  0  0  0  0  0
    5.5350   -6.3180   -0.5640 C   0  0  0  0  0  3  0  0  0  0  0  0
    5.2290   -7.6690   -0.5530 C   0  0  0  0  0  3  0  0  0  0  0  0
    4.6960   -8.2520    0.5990 C   0  0  0  0  0  3  0  0  0  0  0  0
    4.4770   -7.4970    1.7640 C   0  0  0  0  0  0  0  0  0  0  0  0
    3.7540   -5.0780    5.3480 C   0  0  2  0  0  3  0  0  0  0  0  0
    4.0490   -5.5930    6.5160 N   0  0  0  0  0  0  0  0  0  0  0  0
    3.8410   -4.9040    7.9470 S   0  0  0  0  0  0  0  0  0  0  0  0
    2.8660   -5.6640    8.7050 O   0  0  0  0  0  0  0  0  0  0  0  0
    5.1390   -4.6220    8.5310 O   0  0  0  0  0  0  0  0  0  0  0  0
    3.1000   -3.3330    7.6550 C   0  0  0  0  0  0  0  0  0  0  0  0
    2.7800   -2.5090    8.7410 C   0  0  0  0  0  3  0  0  0  0  0  0
    2.1950   -1.2690    8.5010 C   0  0  0  0  0  3  0  0  0  0  0  0
    1.9390   -0.8670    7.1910 C   0  0  0  0  0  3  0  0  0  0  0  0
    2.2640   -1.7040    6.1190 C   0  0  0  0  0  3  0  0  0  0  0  0
    2.8520   -2.9530    6.3430 C   0  0  0  0  0  0  0  0  0  0  0  0
    3.1770   -3.7890    5.2830 N   0  0  0  0  0  0  0  0  0  0  0  0
    4.4510   -6.5260    6.5300 H   0  0  0  0  0  0  0  0  0  0  0  0
    2.9650   -3.4690    4.3360 H   0  0  0  0  0  0  0  0  0  0  0  0
    5.1780   -4.0660    3.0300 O   0  0  0  0  0  0  0  0  0  0  0  0
    5.9700   -4.0490    2.4610 H   0  0  0  0  0  0  0  0  0  0  0  0
    3.4850   -9.4780    2.9650 C   0  0  0  0  0  2  0  0  0  0  0  0
    2.0450   -9.7380    2.4970 C   0  0  0  0  0  2  0  0  0  0  0  0
    0.1580   -9.3510    4.1700 C   0  0  0  0  0  1  0  0  0  0  0  0
    1.1220  -10.3540    3.5520 C   0  0  0  0  0  2  0  0  0  0  0  0
  1 28  1  0  0  0  0
  1  2  1  0  0  0  0
  2  4  1  0  0  0  0
  2  3  2  0  0  0  0
  5 26  1  0  0  0  0
  5  4  2  0  0  0  0
  6  5  1  0  0  0  0
  7  6  2  0  0  0  0
  8  9  2  0  0  0  0
  8  7  1  0  0  0  0
  9 10  1  0  0  0  0
 10 11  2  0  0  0  0
 11  6  1  0  0  0  0
 11  1  1  0  0  0  0
 12  4  1  1  0  0  0
 12 13  1  0  0  0  0
 13 24  1  0  0  0  0
 13 14  1  0  0  0  0
 14 16  2  0  0  0  0
 14 15  2  0  0  0  0
 17 14  1  0  0  0  0
 17 18  1  0  0  0  0
 19 18  2  0  0  0  0
 20 19  1  0  0  0  0
 21 22  1  0  0  0  0
 21 20  2  0  0  0  0
 22 17  2  0  0  0  0
 23 12  1  0  0  0  0
 23 22  1  0  0  0  0
 25 23  1  0  0  0  0
 27 26  1  0  0  0  0
 29 28  1  0  0  0  0
 29 31  1  0  0  0  0
 31 30  1  0  0  0  0
M  END
>  <minimizedAffinity>
-7.35873699

$$$$

 OpenBabel09122223533D

 31 34  0  0  1  0  0  0  0  0999 V2000
    3.2430   -5.1130    7.6330 N   0  0  0  0  0  0  0  0  0  0  0  0
    3.5940   -5.8620    6.5190 C   0  0  0  0  0  0  0  0  0  0  0  0
    4.0230   -7.0190    6.5860 O   0  0  0  0  0  0  0  0  0  0  0  0
    3.4170   -5.2710    5.1550 C   0  0  0  0  0  0  0  0  0  0  0  0
    2.9640   -4.0100    5.0520 C   0  0  0  0  0  0  0  0  0  0  0  0
    2.7180   -3.1730    6.2400 C   0  0  0  0  0  0  0  0  0  0  0  0
    2.4100   -1.8020    6.1310 C   0  0  0  0  0  3  0  0  0  0  0  0
    2.1460   -1.0300    7.2610 C   0  0  0  0  0  3  0  0  0  0  0  0
    2.2000   -1.6120    8.5170 C   0  0  0  0  0  3  0  0  0  0  0  0
    2.5430   -2.9590    8.6460 C   0  0  0  0  0  3  0  0  0  0  0  0
    2.8200   -3.7520    7.5190 C   0  0  0  0  0  0  0  0  0  0  0  0
    3.7380   -6.1570    3.9700 C   0  0  2  0  0  3  0  0  0  0  0  0
    3.5160   -7.4470    4.0270 N   0  0  0  0  0  0  0  0  0  0  0  0
    3.7890   -8.5180    2.8650 S   0  0  0  0  0  0  0  0  0  0  0  0
    4.8170   -9.4420    3.3020 O   0  0  0  0  0  0  0  0  0  0  0  0
    2.5200   -9.0330    2.3870 O   0  0  0  0  0  0  0  0  0  0  0  0
    4.4840   -7.6350    1.5100 C   0  0  0  0  0  0  0  0  0  0  0  0
    4.8470   -8.3290    0.3490 C   0  0  0  0  0  3  0  0  0  0  0  0
    5.3960   -7.6240   -0.7180 C   0  0  0  0  0  3  0  0  0  0  0  0
    5.5740   -6.2450   -0.6180 C   0  0  0  0  0  3  0  0  0  0  0  0
    5.2060   -5.5680    0.5510 C   0  0  0  0  0  3  0  0  0  0  0  0
    4.6540   -6.2620    1.6320 C   0  0  0  0  0  0  0  0  0  0  0  0
    4.2870   -5.5980    2.7940 N   0  0  0  0  0  0  0  0  0  0  0  0
    3.1320   -7.8210    4.8900 H   0  0  0  0  0  0  0  0  0  0  0  0
    4.4420   -4.5880    2.8400 H   0  0  0  0  0  0  0  0  0  0  0  0
    2.6740   -3.4620    3.8090 O   0  0  0  0  0  0  0  0  0  0  0  0
    1.9360   -2.8330    3.9160 H   0  0  0  0  0  0  0  0  0  0  0  0
    3.3570   -5.7540    8.9510 C   0  0  0  0  0  2  0  0  0  0  0  0
    4.8080   -5.9930    9.3930 C   0  0  0  0  0  2  0  0  0  0  0  0
    5.8750   -3.7580   10.0090 C   0  0  0  0  0  1  0  0  0  0  0  0
    5.7960   -4.8920    8.9970 C   0  0  0  0  0  2  0  0  0  0  0  0
  1 28  1  0  0  0  0
  2  3  2  0  0  0  0
  2  1  1  0  0  0  0
  4  2  1  0  0  0  0
  5  4  2  0  0  0  0
  5  6  1  0  0  0  0
  6 11  1  0  0  0  0
  7  6  2  0  0  0  0
  7  8  1  0  0  0  0
  8  9  2  0  0  0  0
  9 10  1  0  0  0  0
 11  1  1  0  0  0  0
 11 10  2  0  0  0  0
 12 13  1  0  0  0  0
 12  4  1  1  0  0  0
 13 24  1  0  0  0  0
 14 15  2  0  0  0  0
 14 13  1  0  0  0  0
 16 14  2  0  0  0  0
 17 22  1  0  0  0  0
 17 14  1  0  0  0  0
 18 17  2  0  0  0  0
 19 20  2  0  0  0  0
 19 18  1  0  0  0  0
 20 21  1  0  0  0  0
 21 22  2  0  0  0  0
 22 23  1  0  0  0  0
 23 25  1  0  0  0  0
 23 12  1  0  0  0  0
 26 27  1  0  0  0  0
 26  5  1  0  0  0  0
 28 29  1  0  0  0  0
 31 29  1  0  0  0  0
 31 30  1  0  0  0  0
M  END
>  <minimizedAffinity>
-7.25653219

$$$$

 OpenBabel09122223533D

 31 34  0  0  1  0  0  0  0  0999 V2000
    4.1370   -4.2670    7.2840 N   0  0  0  0  0  0  0  0  0  0  0  0
    4.3440   -4.8680    6.0510 C   0  0  0  0  0  0  0  0  0  0  0  0
    5.1870   -4.4760    5.2370 O   0  0  0  0  0  0  0  0  0  0  0  0
    3.5430   -6.0780    5.6830 C   0  0  0  0  0  0  0  0  0  0  0  0
    2.6100   -6.5210    6.5430 C   0  0  0  0  0  0  0  0  0  0  0  0
    2.3020   -5.8020    7.7920 C   0  0  0  0  0  0  0  0  0  0  0  0
    1.2110   -6.1660    8.6080 C   0  0  0  0  0  3  0  0  0  0  0  0
    0.9510   -5.4990    9.8040 C   0  0  0  0  0  3  0  0  0  0  0  0
    1.7670   -4.4500   10.1960 C   0  0  0  0  0  3  0  0  0  0  0  0
    2.8270   -4.0510    9.3800 C   0  0  0  0  0  3  0  0  0  0  0  0
    3.1010   -4.7060    8.1670 C   0  0  0  0  0  0  0  0  0  0  0  0
    3.8640   -6.7460    4.3620 C   0  0  2  0  0  3  0  0  0  0  0  0
    3.8910   -8.0520    4.2670 N   0  0  0  0  0  0  0  0  0  0  0  0
    4.2020   -8.9110    2.9500 S   0  0  0  0  0  0  0  0  0  0  0  0
    5.4290   -9.6580    3.1470 O   0  0  0  0  0  0  0  0  0  0  0  0
    2.9970   -9.6090    2.5440 O   0  0  0  0  0  0  0  0  0  0  0  0
    4.5440   -7.7620    1.6610 C   0  0  0  0  0  0  0  0  0  0  0  0
    4.8740   -8.2360    0.3850 C   0  0  0  0  0  3  0  0  0  0  0  0
    5.1430   -7.3220   -0.6290 C   0  0  0  0  0  3  0  0  0  0  0  0
    5.0780   -5.9540   -0.3630 C   0  0  0  0  0  3  0  0  0  0  0  0
    4.7470   -5.4990    0.9180 C   0  0  0  0  0  3  0  0  0  0  0  0
    4.4750   -6.4050    1.9470 C   0  0  0  0  0  0  0  0  0  0  0  0
    4.1460   -5.9610    3.2210 N   0  0  0  0  0  0  0  0  0  0  0  0
    3.6960   -8.5880    5.1080 H   0  0  0  0  0  0  0  0  0  0  0  0
    4.1190   -4.9520    3.3860 H   0  0  0  0  0  0  0  0  0  0  0  0
    1.9260   -7.7050    6.2980 O   0  0  0  0  0  0  0  0  0  0  0  0
    1.7170   -8.1220    7.1550 H   0  0  0  0  0  0  0  0  0  0  0  0
    4.9950   -3.1300    7.6430 C   0  0  0  0  0  2  0  0  0  0  0  0
    4.6110   -1.8240    6.9310 C   0  0  0  0  0  2  0  0  0  0  0  0
    2.1700   -1.0810    6.9620 C   0  0  0  0  0  1  0  0  0  0  0  0
    3.5330   -0.9940    7.6340 C   0  0  0  0  0  2  0  0  0  0  0  0
  1 28  1  0  0  0  0
  1 11  1  0  0  0  0
  2  1  1  0  0  0  0
  3  2  2  0  0  0  0
  4  2  1  0  0  0  0
  4  5  2  0  0  0  0
  5  6  1  0  0  0  0
  6 11  2  0  0  0  0
  6  7  1  0  0  0  0
  7  8  2  0  0  0  0
  8  9  1  0  0  0  0
 10  9  2  0  0  0  0
 11 10  1  0  0  0  0
 12  4  1  1  0  0  0
 13 12  1  0  0  0  0
 13 24  1  0  0  0  0
 14 15  2  0  0  0  0
 14 13  1  0  0  0  0
 16 14  2  0  0  0  0
 17 22  1  0  0  0  0
 17 14  1  0  0  0  0
 18 17  2  0  0  0  0
 19 20  2  0  0  0  0
 19 18  1  0  0  0  0
 20 21  1  0  0  0  0
 21 22  2  0  0  0  0
 22 23  1  0  0  0  0
 23 25  1  0  0  0  0
 23 12  1  0  0  0  0
 26  5  1  0  0  0  0
 26 27  1  0  0  0  0
 29 31  1  0  0  0  0
 29 28  1  0  0  0  0
 30 31  1  0  0  0  0
M  END
>  <minimizedAffinity>
-7.1710887

$$$$

 OpenBabel09122223533D

 31 34  0  0  1  0  0  0  0  0999 V2000
    1.0960   -7.5150    7.0340 N   0  0  0  0  0  0  0  0  0  0  0  0
    1.7420   -7.8920    5.8660 C   0  0  0  0  0  0  0  0  0  0  0  0
    1.3430   -8.8030    5.1320 O   0  0  0  0  0  0  0  0  0  0  0  0
    2.9660   -7.1470    5.4330 C   0  0  0  0  0  0  0  0  0  0  0  0
    3.4320   -6.1590    6.2170 C   0  0  0  0  0  0  0  0  0  0  0  0
    2.8200   -5.8500    7.5220 C   0  0  0  0  0  0  0  0  0  0  0  0
    3.4080   -4.9360    8.4190 C   0  0  0  0  0  3  0  0  0  0  0  0
    2.8000   -4.6270    9.6350 C   0  0  0  0  0  3  0  0  0  0  0  0
    1.6050   -5.2370    9.9800 C   0  0  0  0  0  3  0  0  0  0  0  0
    1.0300   -6.1750    9.1200 C   0  0  0  0  0  3  0  0  0  0  0  0
    1.6310   -6.5060    7.8930 C   0  0  0  0  0  0  0  0  0  0  0  0
    3.5870   -7.5440    4.1100 C   0  0  2  0  0  3  0  0  0  0  0  0
    3.9020   -8.7930    3.8730 N   0  0  0  0  0  0  0  0  0  0  0  0
    4.5530   -9.3780    2.5300 S   0  0  0  0  0  0  0  0  0  0  0  0
    5.8750   -9.8940    2.8280 O   0  0  0  0  0  0  0  0  0  0  0  0
    3.5850  -10.2310    1.8660 O   0  0  0  0  0  0  0  0  0  0  0  0
    4.8050   -8.0120    1.4480 C   0  0  0  0  0  0  0  0  0  0  0  0
    5.3880   -8.2260    0.1920 C   0  0  0  0  0  3  0  0  0  0  0  0
    5.5850   -7.1420   -0.6570 C   0  0  0  0  0  3  0  0  0  0  0  0
    5.1980   -5.8660   -0.2510 C   0  0  0  0  0  3  0  0  0  0  0  0
    4.6180   -5.6710    1.0070 C   0  0  0  0  0  3  0  0  0  0  0  0
    4.4150   -6.7500    1.8730 C   0  0  0  0  0  0  0  0  0  0  0  0
    3.8390   -6.5640    3.1230 N   0  0  0  0  0  0  0  0  0  0  0  0
    3.7200   -9.4710    4.6060 H   0  0  0  0  0  0  0  0  0  0  0  0
    3.5780   -5.6140    3.3950 H   0  0  0  0  0  0  0  0  0  0  0  0
    4.4920   -5.3660    5.8010 O   0  0  0  0  0  0  0  0  0  0  0  0
    4.3700   -4.4710    6.1710 H   0  0  0  0  0  0  0  0  0  0  0  0
   -0.1460   -8.2180    7.3850 C   0  0  0  0  0  2  0  0  0  0  0  0
   -1.3990   -7.3350    7.2860 C   0  0  0  0  0  2  0  0  0  0  0  0
   -3.4560   -7.0220    5.8080 C   0  0  0  0  0  1  0  0  0  0  0  0
   -1.9390   -7.1320    5.8680 C   0  0  0  0  0  2  0  0  0  0  0  0
  1 28  1  0  0  0  0
  1 11  1  0  0  0  0
  2  1  1  0  0  0  0
  3  2  2  0  0  0  0
  4  2  1  0  0  0  0
  4  5  2  0  0  0  0
  5  6  1  0  0  0  0
  6 11  2  0  0  0  0
  6  7  1  0  0  0  0
  7  8  2  0  0  0  0
  8  9  1  0  0  0  0
 10  9  2  0  0  0  0
 11 10  1  0  0  0  0
 12  4  1  1  0  0  0
 13 12  1  0  0  0  0
 13 24  1  0  0  0  0
 14 15  2  0  0  0  0
 14 13  1  0  0  0  0
 16 14  2  0  0  0  0
 17 22  1  0  0  0  0
 17 14  1  0  0  0  0
 18 17  2  0  0  0  0
 19 20  2  0  0  0  0
 19 18  1  0  0  0  0
 20 21  1  0  0  0  0
 21 22  2  0  0  0  0
 22 23  1  0  0  0  0
 23 25  1  0  0  0  0
 23 12  1  0  0  0  0
 26 27  1  0  0  0  0
 26  5  1  0  0  0  0
 29 28  1  0  0  0  0
 30 31  1  0  0  0  0
 31 29  1  0  0  0  0
M  END
>  <minimizedAffinity>
-6.91860723

$$$$

 OpenBabel09122223533D

 31 34  0  0  1  0  0  0  0  0999 V2000
    3.6880   -7.8920    3.1740 N   0  0  0  0  0  0  0  0  0  0  0  0
    3.3390   -7.0290    4.2020 C   0  0  0  0  0  0  0  0  0  0  0  0
    2.7560   -7.3960    5.2280 O   0  0  0  0  0  0  0  0  0  0  0  0
    3.7120   -5.5830    4.1020 C   0  0  0  0  0  0  0  0  0  0  0  0
    4.3370   -5.1530    2.9930 C   0  0  2  0  0  3  0  0  0  0  0  0
    4.5870   -6.0450    1.8470 C   0  0  0  0  0  0  0  0  0  0  0  0
    5.0830   -5.5570    0.6210 C   0  0  0  0  0  3  0  0  0  0  0  0
    5.3480   -6.4180   -0.4430 C   0  0  0  0  0  3  0  0  0  0  0  0
    5.1060   -7.7750   -0.3050 C   0  0  0  0  0  3  0  0  0  0  0  0
    4.5770   -8.2690    0.8890 C   0  0  0  0  0  3  0  0  0  0  0  0
    4.2960   -7.4170    1.9710 C   0  0  0  0  0  0  0  0  0  0  0  0
    3.3810   -4.6990    5.2870 C   0  0  0  0  0  0  0  0  0  0  0  0
    3.5380   -3.4010    5.2100 N   0  0  0  0  0  0  0  0  0  0  0  0
    3.2280   -2.3290    6.3610 S   0  0  0  0  0  0  0  0  0  0  0  0
    4.4670   -1.6920    6.7650 O   0  0  0  0  0  0  0  0  0  0  0  0
    2.1020   -1.5090    5.9550 O   0  0  0  0  0  0  0  0  0  0  0  0
    2.6750   -3.2350    7.7660 C   0  0  0  0  0  0  0  0  0  0  0  0
    2.3490   -2.5490    8.9430 C   0  0  0  0  0  3  0  0  0  0  0  0
    1.9130   -3.2710   10.0500 C   0  0  0  0  0  3  0  0  0  0  0  0
    1.8060   -4.6590    9.9710 C   0  0  0  0  0  3  0  0  0  0  0  0
    2.1370   -5.3270    8.7870 C   0  0  0  0  0  3  0  0  0  0  0  0
    2.5770   -4.6160    7.6670 C   0  0  0  0  0  0  0  0  0  0  0  0
    2.9080   -5.2720    6.4890 N   0  0  0  0  0  0  0  0  0  0  0  0
    3.8920   -3.0200    4.3370 H   0  0  0  0  0  0  0  0  0  0  0  0
    2.8290   -6.2910    6.4690 H   0  0  0  0  0  0  0  0  0  0  0  0
    4.8050   -3.8480    2.9050 O   0  0  0  0  0  0  0  0  0  0  0  0
    5.6080   -3.8470    2.3510 H   0  0  0  0  0  0  0  0  0  0  0  0
    3.3740   -9.3180    3.3420 C   0  0  0  0  0  2  0  0  0  0  0  0
    2.0120   -9.7190    2.7570 C   0  0  0  0  0  2  0  0  0  0  0  0
   -0.0000   -9.2300    4.2480 C   0  0  0  0  0  1  0  0  0  0  0  0
    1.0060  -10.2680    3.7730 C   0  0  0  0  0  2  0  0  0  0  0  0
  1 28  1  0  0  0  0
  1  2  1  0  0  0  0
  2  3  2  0  0  0  0
  4  2  1  0  0  0  0
  4 12  2  0  0  0  0
  5 26  1  1  0  0  0
  5  4  1  0  0  0  0
  6 11  1  0  0  0  0
  6  5  1  0  0  0  0
  7  6  2  0  0  0  0
  8  9  2  0  0  0  0
  8  7  1  0  0  0  0
  9 10  1  0  0  0  0
 10 11  2  0  0  0  0
 11  1  1  0  0  0  0
 12 23  1  0  0  0  0
 13 12  1  0  0  0  0
 13 14  1  0  0  0  0
 14 15  2  0  0  0  0
 14 17  1  0  0  0  0
 16 14  2  0  0  0  0
 17 18  1  0  0  0  0
 18 19  2  0  0  0  0
 20 19  1  0  0  0  0
 21 20  2  0  0  0  0
 22 17  2  0  0  0  0
 22 21  1  0  0  0  0
 23 22  1  0  0  0  0
 24 13  1  0  0  0  0
 25 23  1  0  0  0  0
 27 26  1  0  0  0  0
 29 28  1  0  0  0  0
 29 31  1  0  0  0  0
 31 30  1  0  0  0  0
M  END
>  <minimizedAffinity>
-6.8197093

$$$$

 OpenBabel09122223533D

 31 34  0  0  1  0  0  0  0  0999 V2000
    3.5620   -5.9820    4.5850 N   0  0  0  0  0  0  0  0  0  0  0  0
    2.5180   -6.2730    5.4510 C   0  0  0  0  0  0  0  0  0  0  0  0
    2.1490   -5.5100    6.3500 O   0  0  0  0  0  0  0  0  0  0  0  0
    1.7610   -7.5530    5.2820 C   0  0  0  0  0  0  0  0  0  0  0  0
    2.1470   -8.4090    4.3200 C   0  0  0  0  0  0  0  0  0  0  0  0
    3.3390   -8.1570    3.4890 C   0  0  0  0  0  0  0  0  0  0  0  0
    3.8430   -9.1290    2.6020 C   0  0  0  0  0  3  0  0  0  0  0  0
    4.9500   -8.8650    1.7970 C   0  0  0  0  0  3  0  0  0  0  0  0
    5.5790   -7.6330    1.8770 C   0  0  0  0  0  3  0  0  0  0  0  0
    5.1160   -6.6740    2.7790 C   0  0  0  0  0  3  0  0  0  0  0  0
    4.0060   -6.9230    3.6050 C   0  0  0  0  0  0  0  0  0  0  0  0
    0.5790   -7.7860    6.1990 C   0  0  2  0  0  3  0  0  0  0  0  0
    0.6810   -8.6030    7.2180 N   0  0  0  0  0  0  0  0  0  0  0  0
   -0.4640   -8.9510    8.2850 S   0  0  0  0  0  0  0  0  0  0  0  0
   -0.8140  -10.3530    8.1660 O   0  0  0  0  0  0  0  0  0  0  0  0
   -0.0860   -8.4150    9.5790 O   0  0  0  0  0  0  0  0  0  0  0  0
   -1.9020   -8.0570    7.8010 C   0  0  0  0  0  0  0  0  0  0  0  0
   -3.0790   -8.1880    8.5480 C   0  0  0  0  0  3  0  0  0  0  0  0
   -4.2110   -7.4780    8.1590 C   0  0  0  0  0  3  0  0  0  0  0  0
   -4.1570   -6.6490    7.0390 C   0  0  0  0  0  3  0  0  0  0  0  0
   -2.9720   -6.5310    6.3050 C   0  0  0  0  0  3  0  0  0  0  0  0
   -1.8270   -7.2390    6.6810 C   0  0  0  0  0  0  0  0  0  0  0  0
   -0.6470   -7.1270    5.9570 N   0  0  0  0  0  0  0  0  0  0  0  0
    1.5710   -9.0710    7.3590 H   0  0  0  0  0  0  0  0  0  0  0  0
   -0.6450   -6.5200    5.1340 H   0  0  0  0  0  0  0  0  0  0  0  0
    1.4060   -9.5510    4.0500 O   0  0  0  0  0  0  0  0  0  0  0  0
    1.4850   -9.7510    3.0980 H   0  0  0  0  0  0  0  0  0  0  0  0
    4.2300   -4.6820    4.7330 C   0  0  0  0  0  2  0  0  0  0  0  0
    3.6900   -3.6030    3.7810 C   0  0  0  0  0  2  0  0  0  0  0  0
    2.7960   -2.1570    5.6840 C   0  0  0  0  0  1  0  0  0  0  0  0
    2.5160   -2.7860    4.3270 C   0  0  0  0  0  2  0  0  0  0  0  0
  1 28  1  0  0  0  0
  1  2  1  0  0  0  0
  2  3  2  0  0  0  0
  4  2  1  0  0  0  0
  5  4  2  0  0  0  0
  6 11  1  0  0  0  0
  6  5  1  0  0  0  0
  7  6  2  0  0  0  0
  8  9  2  0  0  0  0
  8  7  1  0  0  0  0
  9 10  1  0  0  0  0
 10 11  2  0  0  0  0
 11  1  1  0  0  0  0
 12  4  1  6  0  0  0
 12 13  1  0  0  0  0
 13 24  1  0  0  0  0
 13 14  1  0  0  0  0
 14 16  2  0  0  0  0
 15 14  2  0  0  0  0
 17 14  1  0  0  0  0
 17 18  1  0  0  0  0
 19 18  2  0  0  0  0
 20 19  1  0  0  0  0
 21 22  1  0  0  0  0
 21 20  2  0  0  0  0
 22 17  2  0  0  0  0
 23 12  1  0  0  0  0
 23 22  1  0  0  0  0
 25 23  1  0  0  0  0
 26  5  1  0  0  0  0
 27 26  1  0  0  0  0
 29 31  1  0  0  0  0
 29 28  1  0  0  0  0
 31 30  1  0  0  0  0
M  END
>  <minimizedAffinity>
-6.36686325

$$$$

 OpenBabel09122223533D

 31 34  0  0  1  0  0  0  0  0999 V2000
    3.9620   -8.5540    3.9810 N   0  0  0  0  0  0  0  0  0  0  0  0
    2.8540   -8.6080    4.8120 C   0  0  0  0  0  0  0  0  0  0  0  0
    2.3940   -9.6630    5.2650 O   0  0  0  0  0  0  0  0  0  0  0  0
    2.1870   -7.3340    5.2270 C   0  0  0  0  0  0  0  0  0  0  0  0
    2.6570   -6.1720    4.7410 C   0  0  0  0  0  0  0  0  0  0  0  0
    3.7510   -6.1280    3.7540 C   0  0  0  0  0  0  0  0  0  0  0  0
    4.1270   -4.9290    3.1160 C   0  0  0  0  0  3  0  0  0  0  0  0
    5.1860   -4.8960    2.2100 C   0  0  0  0  0  3  0  0  0  0  0  0
    5.8740   -6.0620    1.9160 C   0  0  0  0  0  3  0  0  0  0  0  0
    5.4880   -7.2650    2.5090 C   0  0  0  0  0  3  0  0  0  0  0  0
    4.4180   -7.3210    3.4190 C   0  0  0  0  0  0  0  0  0  0  0  0
    1.0320   -7.4410    6.2000 C   0  0  2  0  0  3  0  0  0  0  0  0
    1.2370   -7.8350    7.4330 N   0  0  0  0  0  0  0  0  0  0  0  0
    0.1340   -7.9920    8.5850 S   0  0  0  0  0  0  0  0  0  0  0  0
    0.0320   -9.3900    8.9580 O   0  0  0  0  0  0  0  0  0  0  0  0
    0.3710   -6.9930    9.6090 O   0  0  0  0  0  0  0  0  0  0  0  0
   -1.4190   -7.5760    7.8650 C   0  0  0  0  0  0  0  0  0  0  0  0
   -2.5810   -7.6460    8.6430 C   0  0  0  0  0  3  0  0  0  0  0  0
   -3.8030   -7.3160    8.0670 C   0  0  0  0  0  3  0  0  0  0  0  0
   -3.8540   -6.9190    6.7310 C   0  0  0  0  0  3  0  0  0  0  0  0
   -2.6830   -6.8550    5.9690 C   0  0  0  0  0  3  0  0  0  0  0  0
   -1.4470   -7.1850    6.5330 C   0  0  0  0  0  0  0  0  0  0  0  0
   -0.2800   -7.1240    5.7820 N   0  0  0  0  0  0  0  0  0  0  0  0
    2.1890   -8.0670    7.7000 H   0  0  0  0  0  0  0  0  0  0  0  0
   -0.3540   -6.8410    4.8020 H   0  0  0  0  0  0  0  0  0  0  0  0
    2.1460   -4.9600    5.1880 O   0  0  0  0  0  0  0  0  0  0  0  0
    2.8630   -4.2980    5.1650 H   0  0  0  0  0  0  0  0  0  0  0  0
    4.6370   -9.8200    3.6580 C   0  0  0  0  0  2  0  0  0  0  0  0
    4.3010  -10.3540    2.2580 C   0  0  0  0  0  2  0  0  0  0  0  0
    2.4700   -9.2500    0.8650 C   0  0  0  0  0  1  0  0  0  0  0  0
    2.8150  -10.3200    1.8900 C   0  0  0  0  0  2  0  0  0  0  0  0
  1  2  1  0  0  0  0
  2  4  1  0  0  0  0
  2  3  2  0  0  0  0
  5 26  1  0  0  0  0
  5  4  2  0  0  0  0
  6  5  1  0  0  0  0
  7  6  2  0  0  0  0
  8  7  1  0  0  0  0
  9  8  2  0  0  0  0
  9 10  1  0  0  0  0
 10 11  2  0  0  0  0
 11  6  1  0  0  0  0
 11  1  1  0  0  0  0
 12  4  1  6  0  0  0
 12 13  1  0  0  0  0
 13 24  1  0  0  0  0
 13 14  1  0  0  0  0
 14 15  2  0  0  0  0
 14 16  2  0  0  0  0
 17 14  1  0  0  0  0
 17 18  1  0  0  0  0
 19 18  2  0  0  0  0
 20 19  1  0  0  0  0
 21 22  1  0  0  0  0
 21 20  2  0  0  0  0
 22 17  2  0  0  0  0
 23 12  1  0  0  0  0
 23 22  1  0  0  0  0
 25 23  1  0  0  0  0
 27 26  1  0  0  0  0
 28  1  1  0  0  0  0
 29 28  1  0  0  0  0
 30 31  1  0  0  0  0
 31 29  1  0  0  0  0
M  END
>  <minimizedAffinity>
-6.30834436

$$$$

 OpenBabel09122223533D

 31 34  0  0  1  0  0  0  0  0999 V2000
    0.2800   -7.8220    7.2570 N   0  0  0  0  0  0  0  0  0  0  0  0
    0.9820   -7.3570    6.1550 C   0  0  0  0  0  0  0  0  0  0  0  0
    0.4610   -6.7090    5.2410 O   0  0  0  0  0  0  0  0  0  0  0  0
    2.4550   -7.6100    6.0660 C   0  0  0  0  0  0  0  0  0  0  0  0
    3.0470   -8.3230    7.0390 C   0  0  0  0  0  0  0  0  0  0  0  0
    2.2750   -8.9280    8.1390 C   0  0  0  0  0  0  0  0  0  0  0  0
    2.8660   -9.8160    9.0600 C   0  0  0  0  0  3  0  0  0  0  0  0
    2.1320  -10.3540   10.1160 C   0  0  0  0  0  3  0  0  0  0  0  0
    0.7940  -10.0260   10.2590 C   0  0  0  0  0  3  0  0  0  0  0  0
    0.1830   -9.1790    9.3320 C   0  0  0  0  0  3  0  0  0  0  0  0
    0.9040   -8.6330    8.2560 C   0  0  0  0  0  0  0  0  0  0  0  0
    3.1900   -7.0110    4.8850 C   0  0  2  0  0  3  0  0  0  0  0  0
    3.6420   -5.7830    4.9380 N   0  0  0  0  0  0  0  0  0  0  0  0
    4.4440   -5.0070    3.7870 S   0  0  0  0  0  0  0  0  0  0  0  0
    3.6470   -3.8880    3.3230 O   0  0  0  0  0  0  0  0  0  0  0  0
    5.8070   -4.7800    4.2280 O   0  0  0  0  0  0  0  0  0  0  0  0
    4.5640   -6.1080    2.4170 C   0  0  0  0  0  0  0  0  0  0  0  0
    5.2040   -5.6830    1.2460 C   0  0  0  0  0  3  0  0  0  0  0  0
    5.2950   -6.5580    0.1690 C   0  0  0  0  0  3  0  0  0  0  0  0
    4.7530   -7.8390    0.2700 C   0  0  0  0  0  3  0  0  0  0  0  0
    4.1170   -8.2450    1.4480 C   0  0  0  0  0  3  0  0  0  0  0  0
    4.0160   -7.3770    2.5390 C   0  0  0  0  0  0  0  0  0  0  0  0
    3.3860   -7.7740    3.7110 N   0  0  0  0  0  0  0  0  0  0  0  0
    3.4750   -5.2560    5.7900 H   0  0  0  0  0  0  0  0  0  0  0  0
    2.9890   -8.7150    3.7480 H   0  0  0  0  0  0  0  0  0  0  0  0
    4.4270   -8.4820    7.0590 O   0  0  0  0  0  0  0  0  0  0  0  0
    4.7150   -8.5390    7.9890 H   0  0  0  0  0  0  0  0  0  0  0  0
   -1.1490   -7.4890    7.3470 C   0  0  0  0  0  2  0  0  0  0  0  0
   -2.0610   -8.4970    6.6320 C   0  0  0  0  0  2  0  0  0  0  0  0
   -3.5970   -6.4710    6.4090 C   0  0  0  0  0  1  0  0  0  0  0  0
   -3.2900   -7.8890    5.9500 C   0  0  0  0  0  2  0  0  0  0  0  0
  1 28  1  0  0  0  0
  1 11  1  0  0  0  0
  2  1  1  0  0  0  0
  3  2  2  0  0  0  0
  4  2  1  0  0  0  0
  4  5  2  0  0  0  0
  5 26  1  0  0  0  0
  5  6  1  0  0  0  0
  6 11  2  0  0  0  0
  6  7  1  0  0  0  0
  7  8  2  0  0  0  0
  8  9  1  0  0  0  0
 10  9  2  0  0  0  0
 11 10  1  0  0  0  0
 12 13  1  0  0  0  0
 12  4  1  6  0  0  0
 13 24  1  0  0  0  0
 14 16  2  0  0  0  0
 14 13  1  0  0  0  0
 15 14  2  0  0  0  0
 17 22  1  0  0  0  0
 17 14  1  0  0  0  0
 18 17  2  0  0  0  0
 19 20  2  0  0  0  0
 19 18  1  0  0  0  0
 20 21  1  0  0  0  0
 21 22  2  0  0  0  0
 22 23  1  0  0  0  0
 23 25  1  0  0  0  0
 23 12  1  0  0  0  0
 26 27  1  0  0  0  0
 29 28  1  0  0  0  0
 31 30  1  0  0  0  0
 31 29  1  0  0  0  0
M  END
>  <minimizedAffinity>
-6.22287798

$$$$

 OpenBabel09122223533D

 31 34  0  0  1  0  0  0  0  0999 V2000
    0.2140   -7.4640    8.3280 N   0  0  0  0  0  0  0  0  0  0  0  0
    1.2000   -7.3480    7.3590 C   0  0  0  0  0  0  0  0  0  0  0  0
    2.3770   -7.0750    7.6170 O   0  0  0  0  0  0  0  0  0  0  0  0
    0.8500   -7.6010    5.9250 C   0  0  0  0  0  0  0  0  0  0  0  0
   -0.4250   -7.8890    5.6130 C   0  0  0  0  0  0  0  0  0  0  0  0
   -1.4940   -7.8800    6.6280 C   0  0  0  0  0  0  0  0  0  0  0  0
   -2.8520   -8.0110    6.2750 C   0  0  0  0  0  3  0  0  0  0  0  0
   -3.8510   -8.0360    7.2480 C   0  0  0  0  0  3  0  0  0  0  0  0
   -3.5090   -7.9160    8.5850 C   0  0  0  0  0  3  0  0  0  0  0  0
   -2.1720   -7.7450    8.9480 C   0  0  0  0  0  3  0  0  0  0  0  0
   -1.1510   -7.7100    7.9820 C   0  0  0  0  0  0  0  0  0  0  0  0
    1.9790   -7.5420    4.9170 C   0  0  2  0  0  3  0  0  0  0  0  0
    2.3390   -8.6180    4.2610 N   0  0  0  0  0  0  0  0  0  0  0  0
    3.4990   -8.7240    3.1600 S   0  0  0  0  0  0  0  0  0  0  0  0
    4.5470   -9.5950    3.6550 O   0  0  0  0  0  0  0  0  0  0  0  0
    2.9020   -8.9890    1.8650 O   0  0  0  0  0  0  0  0  0  0  0  0
    4.2280   -7.1260    3.0300 C   0  0  0  0  0  0  0  0  0  0  0  0
    5.2960   -6.9260    2.1470 C   0  0  0  0  0  3  0  0  0  0  0  0
    5.8670   -5.6610    2.0490 C   0  0  0  0  0  3  0  0  0  0  0  0
    5.3680   -4.6150    2.8260 C   0  0  0  0  0  3  0  0  0  0  0  0
    4.3000   -4.8340    3.7030 C   0  0  0  0  0  3  0  0  0  0  0  0
    3.7170   -6.1000    3.8130 C   0  0  0  0  0  0  0  0  0  0  0  0
    2.6570   -6.3250    4.6820 N   0  0  0  0  0  0  0  0  0  0  0  0
    1.8410   -9.4800    4.4610 H   0  0  0  0  0  0  0  0  0  0  0  0
    2.3230   -5.5400    5.2460 H   0  0  0  0  0  0  0  0  0  0  0  0
   -0.7730   -8.2440    4.3160 O   0  0  0  0  0  0  0  0  0  0  0  0
   -1.5170   -8.8730    4.3600 H   0  0  0  0  0  0  0  0  0  0  0  0
    0.6110   -7.2860    9.7320 C   0  0  0  0  0  2  0  0  0  0  0  0
    0.4330   -5.8480   10.2410 C   0  0  0  0  0  2  0  0  0  0  0  0
    1.4640   -3.5310    9.9540 C   0  0  0  0  0  1  0  0  0  0  0  0
    1.7100   -5.0020   10.2570 C   0  0  0  0  0  2  0  0  0  0  0  0
  1 28  1  0  0  0  0
  2  3  2  0  0  0  0
  2  1  1  0  0  0  0
  4  2  1  0  0  0  0
  5  4  2  0  0  0  0
  5  6  1  0  0  0  0
  6 11  1  0  0  0  0
  7  6  2  0  0  0  0
  7  8  1  0  0  0  0
  8  9  2  0  0  0  0
  9 10  1  0  0  0  0
 11  1  1  0  0  0  0
 11 10  2  0  0  0  0
 12  4  1  1  0  0  0
 13 24  1  0  0  0  0
 13 12  1  0  0  0  0
 14 15  2  0  0  0  0
 14 13  1  0  0  0  0
 16 14  2  0  0  0  0
 17 14  1  0  0  0  0
 17 22  1  0  0  0  0
 18 17  2  0  0  0  0
 19 18  1  0  0  0  0
 19 20  2  0  0  0  0
 20 21  1  0  0  0  0
 21 22  2  0  0  0  0
 22 23  1  0  0  0  0
 23 12  1  0  0  0  0
 23 25  1  0  0  0  0
 26 27  1  0  0  0  0
 26  5  1  0  0  0  0
 28 29  1  0  0  0  0
 29 31  1  0  0  0  0
 30 31  1  0  0  0  0
M  END
>  <minimizedAffinity>
-6.14193535

$$$$
