
 OpenBabel09132204463D

 31 34  0  0  1  0  0  0  0  0999 V2000
    3.2930   -4.9970    7.7000 N   0  0  0  0  0  0  0  0  0  0  0  0
    3.6360   -5.7650    6.5960 C   0  0  0  0  0  0  0  0  0  0  0  0
    4.1010   -6.9070    6.6810 O   0  0  0  0  0  0  0  0  0  0  0  0
    3.4030   -5.2170    5.2230 C   0  0  0  0  0  0  0  0  0  0  0  0
    2.9090   -3.9730    5.1000 C   0  0  0  0  0  0  0  0  0  0  0  0
    2.6710   -3.1120    6.2720 C   0  0  0  0  0  0  0  0  0  0  0  0
    2.3190   -1.7540    6.1360 C   0  0  0  0  0  3  0  0  0  0  0  0
    2.0640   -0.9600    7.2530 C   0  0  0  0  0  3  0  0  0  0  0  0
    2.1710   -1.5050    8.5220 C   0  0  0  0  0  3  0  0  0  0  0  0
    2.5580   -2.8380    8.6750 C   0  0  0  0  0  3  0  0  0  0  0  0
    2.8270   -3.6530    7.5620 C   0  0  0  0  0  0  0  0  0  0  0  0
    3.7160   -6.1250    4.0530 C   0  0  2  0  0  3  0  0  0  0  0  0
    3.5020   -7.4150    4.1370 N   0  0  0  0  0  0  0  0  0  0  0  0
    3.7680   -8.5070    2.9950 S   0  0  0  0  0  0  0  0  0  0  0  0
    4.8050   -9.4180    3.4400 O   0  0  0  0  0  0  0  0  0  0  0  0
    2.4970   -9.0370    2.5390 O   0  0  0  0  0  0  0  0  0  0  0  0
    4.4470   -7.6480    1.6150 C   0  0  0  0  0  0  0  0  0  0  0  0
    4.8030   -8.3630    0.4650 C   0  0  0  0  0  3  0  0  0  0  0  0
    5.3380   -7.6770   -0.6210 C   0  0  0  0  0  3  0  0  0  0  0  0
    5.5110   -6.2950   -0.5490 C   0  0  0  0  0  3  0  0  0  0  0  0
    5.1500   -5.5980    0.6090 C   0  0  0  0  0  3  0  0  0  0  0  0
    4.6120   -6.2720    1.7080 C   0  0  0  0  0  0  0  0  0  0  0  0
    4.2520   -5.5870    2.8610 N   0  0  0  0  0  0  0  0  0  0  0  0
    3.1280   -7.7730    5.0110 H   0  0  0  0  0  0  0  0  0  0  0  0
    4.4030   -4.5760    2.8850 H   0  0  0  0  0  0  0  0  0  0  0  0
    2.5680   -3.4670    3.8520 O   0  0  0  0  0  0  0  0  0  0  0  0
    1.8140   -2.8580    3.9640 H   0  0  0  0  0  0  0  0  0  0  0  0
    3.4640   -5.5990    9.0300 C   0  0  0  0  0  2  0  0  0  0  0  0
    2.4060   -6.6620    9.3620 C   0  0  0  0  0  2  0  0  0  0  0  0
    0.2580   -7.0300    8.0340 C   0  0  0  0  0  1  0  0  0  0  0  0
    0.9560   -6.2310    9.1250 C   0  0  0  0  0  2  0  0  0  0  0  0
  1 28  1  0  0  0  0
  2  3  2  0  0  0  0
  2  1  1  0  0  0  0
  4  2  1  0  0  0  0
  5  4  2  0  0  0  0
  5  6  1  0  0  0  0
  6 11  1  0  0  0  0
  7  6  2  0  0  0  0
  7  8  1  0  0  0  0
  8  9  2  0  0  0  0
  9 10  1  0  0  0  0
 11  1  1  0  0  0  0
 11 10  2  0  0  0  0
 12 13  1  0  0  0  0
 12  4  1  1  0  0  0
 13 24  1  0  0  0  0
 14 15  2  0  0  0  0
 14 13  1  0  0  0  0
 16 14  2  0  0  0  0
 17 22  1  0  0  0  0
 17 14  1  0  0  0  0
 18 17  2  0  0  0  0
 19 20  2  0  0  0  0
 19 18  1  0  0  0  0
 20 21  1  0  0  0  0
 21 22  2  0  0  0  0
 22 23  1  0  0  0  0
 23 25  1  0  0  0  0
 23 12  1  0  0  0  0
 26 27  1  0  0  0  0
 26  5  1  0  0  0  0
 28 29  1  0  0  0  0
 30 31  1  0  0  0  0
 31 29  1  0  0  0  0
M  END
>  <minimizedAffinity>
-7.58838749

$$$$
