
 OpenBabel09122222393D

 31 33  0  0  0  0  0  0  0  0999 V2000
    4.9860   -0.3600    9.0740 C   0  0  0  0  0  0  0  0  0  0  0  0
    4.9080   -0.0070   10.4620 C   0  0  0  0  0  3  0  0  0  0  0  0
    3.7640   -0.4640   11.0740 C   0  0  0  0  0  3  0  0  0  0  0  0
    2.7720   -1.3220    9.9960 S   0  0  0  0  0  0  0  0  0  0  0  0
    3.8680   -1.1010    8.6810 C   0  0  0  0  0  0  0  0  0  0  0  0
    3.5340   -1.6710    7.3640 C   0  0  0  0  0  0  0  0  0  0  0  0
    2.3800   -1.3110    6.7790 N   0  0  0  0  0  0  0  0  0  0  0  0
    2.1620   -1.8690    5.5840 C   0  0  0  0  0  0  0  0  0  0  0  0
    3.0130   -2.7480    4.9500 C   0  0  0  0  0  0  0  0  0  0  0  0
    4.1790   -3.0650    5.6240 C   0  0  0  0  0  0  0  0  0  0  0  0
    4.4440   -2.5210    6.8500 N   0  0  0  0  0  0  0  0  0  0  0  0
    5.1670   -4.0250    4.9740 C   0  0  0  0  0  0  0  0  0  0  0  0
    4.6610   -5.1150    4.5310 O   0  0  0  0  0  0  0  0  0  0  0  0
    6.3880   -3.6890    4.9170 O   0  0  0  0  0  1  0  0  0  0  0  0
    0.9890   -1.5190    4.9600 O   0  0  0  0  0  0  0  0  0  0  0  0
    1.0310   -2.0260    4.1260 H   0  0  0  0  0  0  0  0  0  0  0  0
    2.6580   -3.2400    3.7210 O   0  0  0  0  0  0  0  0  0  0  0  0
    3.4120   -3.8470    3.4580 H   0  0  0  0  0  0  0  0  0  0  0  0
    8.0320   -0.3030    7.1460 O   0  0  0  0  0  0  0  0  0  0  0  0
    7.2560   -0.6250    8.0370 C   0  0  0  0  0  0  0  0  0  0  0  0
    6.0180   -0.0550    8.1800 N   0  0  0  0  0  0  0  0  0  0  0  0
    5.8400    0.7160    7.5260 H   0  0  0  0  0  0  0  0  0  0  0  0
    7.5670   -1.5570    8.9760 O   0  0  0  0  0  0  0  0  0  0  0  0
    7.7480   -2.8720    8.4540 C   0  0  0  0  0  2  0  0  0  0  0  0
    8.0740   -3.7850    9.6090 C   0  0  0  0  0  0  0  0  0  0  0  0
    9.4240   -4.0560    9.9000 C   0  0  0  0  0  3  0  0  0  0  0  0
    9.7770   -4.8740   10.9740 C   0  0  0  0  0  3  0  0  0  0  0  0
    8.7890   -5.4270   11.7820 C   0  0  0  0  0  3  0  0  0  0  0  0
    7.4460   -5.1580   11.5180 C   0  0  0  0  0  3  0  0  0  0  0  0
    7.0880   -4.3370   10.4420 C   0  0  0  0  0  0  0  0  0  0  0  0
    5.4060   -4.0340   10.1950 Cl  0  0  0  0  0  0  0  0  0  0  0  0
  1  2  1  0  0  0  0
  2  3  2  0  0  0  0
  4  3  1  0  0  0  0
  5  1  2  0  0  0  0
  5  4  1  0  0  0  0
  6  5  1  0  0  0  0
  7  6  1  0  0  0  0
  8  7  2  0  0  0  0
  9  8  1  0  0  0  0
  9 10  2  0  0  0  0
 10 11  1  0  0  0  0
 11  6  2  0  0  0  0
 12 10  1  0  0  0  0
 13 12  2  0  0  0  0
 14 12  1  0  0  0  0
 15  8  1  0  0  0  0
 16 15  1  0  0  0  0
 17  9  1  0  0  0  0
 18 17  1  0  0  0  0
 19 20  2  0  0  0  0
 20 21  1  0  0  0  0
 20 23  1  0  0  0  0
 21  1  1  0  0  0  0
 22 21  1  0  0  0  0
 24 23  1  0  0  0  0
 24 25  1  0  0  0  0
 25 26  2  0  0  0  0
 25 30  1  0  0  0  0
 26 27  1  0  0  0  0
 27 28  2  0  0  0  0
 29 28  1  0  0  0  0
 30 29  2  0  0  0  0
 31 30  1  0  0  0  0
M  END
>  <minimizedAffinity>
-7.11229515

$$$$
