
 OpenBabel09122222393D

 31 33  0  0  0  0  0  0  0  0999 V2000
    9.2390   -2.6290    4.4400 C   0  0  0  0  0  0  0  0  0  0  0  0
   10.4230   -1.8210    4.4880 C   0  0  0  0  0  3  0  0  0  0  0  0
   10.5020   -1.0410    5.6180 C   0  0  0  0  0  3  0  0  0  0  0  0
    9.1630   -1.2700    6.6370 S   0  0  0  0  0  0  0  0  0  0  0  0
    8.4500   -2.4300    5.5760 C   0  0  0  0  0  0  0  0  0  0  0  0
    7.1640   -3.0470    5.9460 C   0  0  0  0  0  0  0  0  0  0  0  0
    6.7340   -2.9320    7.2140 N   0  0  0  0  0  0  0  0  0  0  0  0
    5.5560   -3.5130    7.4580 C   0  0  0  0  0  0  0  0  0  0  0  0
    4.7950   -4.1900    6.5300 C   0  0  0  0  0  0  0  0  0  0  0  0
    5.3130   -4.2600    5.2480 C   0  0  0  0  0  0  0  0  0  0  0  0
    6.5160   -3.6830    4.9510 N   0  0  0  0  0  0  0  0  0  0  0  0
    4.5170   -4.9870    4.1720 C   0  0  0  0  0  0  0  0  0  0  0  0
    5.0210   -6.0960    3.7730 O   0  0  0  0  0  1  0  0  0  0  0  0
    3.4410   -4.4610    3.7570 O   0  0  0  0  0  0  0  0  0  0  0  0
    5.0890   -3.4130    8.7470 O   0  0  0  0  0  0  0  0  0  0  0  0
    4.2400   -3.8930    8.7050 H   0  0  0  0  0  0  0  0  0  0  0  0
    3.6020   -4.7360    6.9250 O   0  0  0  0  0  0  0  0  0  0  0  0
    3.2290   -5.1680    6.1010 H   0  0  0  0  0  0  0  0  0  0  0  0
    8.3790   -4.2190    1.3200 O   0  0  0  0  0  0  0  0  0  0  0  0
    8.6150   -3.3090    2.1060 C   0  0  0  0  0  0  0  0  0  0  0  0
    8.8700   -3.5290    3.4340 N   0  0  0  0  0  0  0  0  0  0  0  0
    8.7640   -4.5090    3.7190 H   0  0  0  0  0  0  0  0  0  0  0  0
    8.6180   -2.0020    1.7330 O   0  0  0  0  0  0  0  0  0  0  0  0
    9.4320   -1.7230    0.5960 C   0  0  0  0  0  2  0  0  0  0  0  0
    9.6950   -0.2380    0.5710 C   0  0  0  0  0  0  0  0  0  0  0  0
    9.3190    0.5360    1.6850 C   0  0  0  0  0  3  0  0  0  0  0  0
    9.5640    1.9100    1.7210 C   0  0  0  0  0  3  0  0  0  0  0  0
   10.1990    2.5310    0.6500 C   0  0  0  0  0  3  0  0  0  0  0  0
   10.5930    1.7770   -0.4550 C   0  0  0  0  0  3  0  0  0  0  0  0
   10.3490    0.3990   -0.4940 C   0  0  0  0  0  0  0  0  0  0  0  0
   10.8870   -0.4670   -1.8880 Cl  0  0  0  0  0  0  0  0  0  0  0  0
  1  2  1  0  0  0  0
  1  5  2  0  0  0  0
  2  3  2  0  0  0  0
  3  4  1  0  0  0  0
  5  6  1  0  0  0  0
  5  4  1  0  0  0  0
  6  7  1  0  0  0  0
  7  8  2  0  0  0  0
  8 15  1  0  0  0  0
  9 17  1  0  0  0  0
  9  8  1  0  0  0  0
 10  9  2  0  0  0  0
 11 10  1  0  0  0  0
 11  6  2  0  0  0  0
 12 10  1  0  0  0  0
 13 12  1  0  0  0  0
 14 12  2  0  0  0  0
 16 15  1  0  0  0  0
 18 17  1  0  0  0  0
 19 20  2  0  0  0  0
 20 21  1  0  0  0  0
 21 22  1  0  0  0  0
 21  1  1  0  0  0  0
 23 20  1  0  0  0  0
 24 23  1  0  0  0  0
 25 24  1  0  0  0  0
 25 26  1  0  0  0  0
 26 27  2  0  0  0  0
 28 27  1  0  0  0  0
 29 28  2  0  0  0  0
 30 29  1  0  0  0  0
 30 25  2  0  0  0  0
 31 30  1  0  0  0  0
M  END
>  <minimizedAffinity>
-7.03776598

$$$$
