
 OpenBabel09122222393D

 31 33  0  0  0  0  0  0  0  0999 V2000
    6.1180   -3.5660    5.7370 C   0  0  0  0  0  0  0  0  0  0  0  0
    4.7280   -3.8290    5.9730 C   0  0  0  0  0  3  0  0  0  0  0  0
    4.0170   -4.0640    4.8200 C   0  0  0  0  0  3  0  0  0  0  0  0
    5.0040   -3.9770    3.4410 S   0  0  0  0  0  0  0  0  0  0  0  0
    6.4140   -3.6260    4.3720 C   0  0  0  0  0  0  0  0  0  0  0  0
    7.7000   -3.4290    3.6810 C   0  0  0  0  0  0  0  0  0  0  0  0
    8.7280   -2.9030    4.3670 N   0  0  0  0  0  0  0  0  0  0  0  0
    9.8570   -2.7680    3.6640 C   0  0  0  0  0  0  0  0  0  0  0  0
   10.0180   -3.1210    2.3420 C   0  0  0  0  0  0  0  0  0  0  0  0
    8.9080   -3.6550    1.7120 C   0  0  0  0  0  0  0  0  0  0  0  0
    7.7310   -3.8100    2.3890 N   0  0  0  0  0  0  0  0  0  0  0  0
    9.0210   -4.0740    0.2510 C   0  0  0  0  0  0  0  0  0  0  0  0
    8.6020   -5.2550   -0.0140 O   0  0  0  0  0  1  0  0  0  0  0  0
    9.5080   -3.2480   -0.5780 O   0  0  0  0  0  0  0  0  0  0  0  0
   10.9280   -2.2320    4.3390 O   0  0  0  0  0  0  0  0  0  0  0  0
   11.6280   -2.2220    3.6580 H   0  0  0  0  0  0  0  0  0  0  0  0
   11.2380   -2.9250    1.7500 O   0  0  0  0  0  0  0  0  0  0  0  0
   11.1240   -3.2490    0.8080 H   0  0  0  0  0  0  0  0  0  0  0  0
    8.1960   -2.1030    8.2950 O   0  0  0  0  0  0  0  0  0  0  0  0
    7.3360   -2.1640    7.4240 C   0  0  0  0  0  0  0  0  0  0  0  0
    7.1040   -3.2990    6.6940 N   0  0  0  0  0  0  0  0  0  0  0  0
    7.7670   -4.0580    6.8870 H   0  0  0  0  0  0  0  0  0  0  0  0
    6.5570   -1.1010    7.0910 O   0  0  0  0  0  0  0  0  0  0  0  0
    5.9650   -0.4410    8.2080 C   0  0  0  0  0  2  0  0  0  0  0  0
    4.5980   -1.0410    8.4270 C   0  0  0  0  0  0  0  0  0  0  0  0
    3.5540   -0.6860    7.5520 C   0  0  0  0  0  3  0  0  0  0  0  0
    2.2780   -1.2340    7.6970 C   0  0  0  0  0  3  0  0  0  0  0  0
    2.0270   -2.1530    8.7120 C   0  0  0  0  0  3  0  0  0  0  0  0
    3.0540   -2.5270    9.5780 C   0  0  0  0  0  3  0  0  0  0  0  0
    4.3340   -1.9800    9.4350 C   0  0  0  0  0  0  0  0  0  0  0  0
    5.5560   -2.5110   10.5340 Cl  0  0  0  0  0  0  0  0  0  0  0  0
  1  2  1  0  0  0  0
  1 21  1  0  0  0  0
  3  2  2  0  0  0  0
  4  5  1  0  0  0  0
  4  3  1  0  0  0  0
  5  1  2  0  0  0  0
  6  7  1  0  0  0  0
  6  5  1  0  0  0  0
  8 15  1  0  0  0  0
  8  7  2  0  0  0  0
  9  8  1  0  0  0  0
 10  9  2  0  0  0  0
 10 11  1  0  0  0  0
 11  6  2  0  0  0  0
 12 10  1  0  0  0  0
 13 12  1  0  0  0  0
 14 12  2  0  0  0  0
 16 15  1  0  0  0  0
 17  9  1  0  0  0  0
 18 17  1  0  0  0  0
 20 19  2  0  0  0  0
 21 22  1  0  0  0  0
 21 20  1  0  0  0  0
 23 20  1  0  0  0  0
 23 24  1  0  0  0  0
 24 25  1  0  0  0  0
 25 30  1  0  0  0  0
 26 27  1  0  0  0  0
 26 25  2  0  0  0  0
 27 28  2  0  0  0  0
 28 29  1  0  0  0  0
 30 29  2  0  0  0  0
 30 31  1  0  0  0  0
M  END
>  <minimizedAffinity>
-7.05131769

$$$$
