
 OpenBabel09122222393D

 31 33  0  0  0  0  0  0  0  0999 V2000
    8.6760   -2.3200    5.1730 C   0  0  0  0  0  0  0  0  0  0  0  0
    8.9450   -2.3270    6.5810 C   0  0  0  0  0  3  0  0  0  0  0  0
    9.8660   -1.3800    6.9620 C   0  0  0  0  0  3  0  0  0  0  0  0
   10.4170   -0.4690    5.6390 S   0  0  0  0  0  0  0  0  0  0  0  0
    9.4190   -1.3300    4.5250 C   0  0  0  0  0  0  0  0  0  0  0  0
    9.4550   -0.9640    3.0980 C   0  0  0  0  0  0  0  0  0  0  0  0
    9.3030    0.3260    2.7580 N   0  0  0  0  0  0  0  0  0  0  0  0
    9.3570    0.5680    1.4450 C   0  0  0  0  0  0  0  0  0  0  0  0
    9.5520   -0.3850    0.4690 C   0  0  0  0  0  0  0  0  0  0  0  0
    9.7000   -1.6890    0.9070 C   0  0  0  0  0  0  0  0  0  0  0  0
    9.6480   -1.9850    2.2410 N   0  0  0  0  0  0  0  0  0  0  0  0
    9.9260   -2.7900   -0.1210 C   0  0  0  0  0  0  0  0  0  0  0  0
    9.4200   -3.9290    0.1750 O   0  0  0  0  0  1  0  0  0  0  0  0
   10.5810   -2.5110   -1.1710 O   0  0  0  0  0  0  0  0  0  0  0  0
    9.2050    1.8790    1.0660 O   0  0  0  0  0  0  0  0  0  0  0  0
    9.2760    1.8310    0.0930 H   0  0  0  0  0  0  0  0  0  0  0  0
    9.5870    0.0110   -0.8430 O   0  0  0  0  0  0  0  0  0  0  0  0
    9.7370   -0.8320   -1.3640 H   0  0  0  0  0  0  0  0  0  0  0  0
    5.8020   -4.1580    4.0040 O   0  0  0  0  0  0  0  0  0  0  0  0
    6.4880   -3.4780    4.7580 C   0  0  0  0  0  0  0  0  0  0  0  0
    7.7880   -3.1490    4.4770 N   0  0  0  0  0  0  0  0  0  0  0  0
    8.1520   -3.5900    3.6250 H   0  0  0  0  0  0  0  0  0  0  0  0
    6.0260   -3.0140    5.9480 O   0  0  0  0  0  0  0  0  0  0  0  0
    4.9070   -3.7350    6.4600 C   0  0  0  0  0  2  0  0  0  0  0  0
    3.9400   -2.7330    7.0410 C   0  0  0  0  0  0  0  0  0  0  0  0
    2.9860   -2.1410    6.1940 C   0  0  0  0  0  3  0  0  0  0  0  0
    2.0530   -1.2280    6.6890 C   0  0  0  0  0  3  0  0  0  0  0  0
    2.0520   -0.9000    8.0410 C   0  0  0  0  0  3  0  0  0  0  0  0
    2.9810   -1.4890    8.8990 C   0  0  0  0  0  3  0  0  0  0  0  0
    3.9170   -2.4050    8.4050 C   0  0  0  0  0  0  0  0  0  0  0  0
    5.0180   -3.1070    9.5350 Cl  0  0  0  0  0  0  0  0  0  0  0  0
  1  2  1  0  0  0  0
  2  3  2  0  0  0  0
  4  3  1  0  0  0  0
  5  1  2  0  0  0  0
  5  4  1  0  0  0  0
  6  5  1  0  0  0  0
  7  6  1  0  0  0  0
  8  7  2  0  0  0  0
  9 10  2  0  0  0  0
  9  8  1  0  0  0  0
 10 11  1  0  0  0  0
 11  6  2  0  0  0  0
 12 13  1  0  0  0  0
 12 10  1  0  0  0  0
 14 12  2  0  0  0  0
 15  8  1  0  0  0  0
 16 15  1  0  0  0  0
 17  9  1  0  0  0  0
 18 17  1  0  0  0  0
 19 20  2  0  0  0  0
 20 23  1  0  0  0  0
 21 20  1  0  0  0  0
 21  1  1  0  0  0  0
 22 21  1  0  0  0  0
 23 24  1  0  0  0  0
 24 25  1  0  0  0  0
 25 30  1  0  0  0  0
 26 27  1  0  0  0  0
 26 25  2  0  0  0  0
 27 28  2  0  0  0  0
 28 29  1  0  0  0  0
 30 29  2  0  0  0  0
 30 31  1  0  0  0  0
M  END
>  <minimizedAffinity>
-7.34621763

$$$$
