
 OpenBabel09122222393D

 31 33  0  0  0  0  0  0  0  0999 V2000
    8.2980   -2.5670    4.4000 C   0  0  0  0  0  0  0  0  0  0  0  0
    8.4460   -2.7550    5.8140 C   0  0  0  0  0  3  0  0  0  0  0  0
    9.4550   -1.9960    6.3590 C   0  0  0  0  0  3  0  0  0  0  0  0
   10.2330   -1.0460    5.1870 S   0  0  0  0  0  0  0  0  0  0  0  0
    9.2210   -1.6350    3.9190 C   0  0  0  0  0  0  0  0  0  0  0  0
    9.4250   -1.1360    2.5470 C   0  0  0  0  0  0  0  0  0  0  0  0
    9.2910    0.1790    2.3120 N   0  0  0  0  0  0  0  0  0  0  0  0
    9.5010    0.5440    1.0440 C   0  0  0  0  0  0  0  0  0  0  0  0
    9.8320   -0.3110    0.0150 C   0  0  0  0  0  0  0  0  0  0  0  0
    9.9500   -1.6500    0.3460 C   0  0  0  0  0  0  0  0  0  0  0  0
    9.7410   -2.0700    1.6290 N   0  0  0  0  0  0  0  0  0  0  0  0
   10.3210   -2.6470   -0.7440 C   0  0  0  0  0  0  0  0  0  0  0  0
   11.1860   -2.2340   -1.5940 O   0  0  0  0  0  0  0  0  0  0  0  0
    9.7660   -3.7870   -0.7350 O   0  0  0  0  0  1  0  0  0  0  0  0
    9.3720    1.8840    0.7720 O   0  0  0  0  0  0  0  0  0  0  0  0
    9.5620    1.9290   -0.1850 H   0  0  0  0  0  0  0  0  0  0  0  0
   10.0200    0.2070   -1.2400 O   0  0  0  0  0  0  0  0  0  0  0  0
   10.2490   -0.5820   -1.8140 H   0  0  0  0  0  0  0  0  0  0  0  0
    5.4530   -4.2920    3.0100 O   0  0  0  0  0  0  0  0  0  0  0  0
    6.2240   -3.8750    3.8660 C   0  0  0  0  0  0  0  0  0  0  0  0
    7.3650   -3.1820    3.5580 N   0  0  0  0  0  0  0  0  0  0  0  0
    7.5510   -3.1190    2.5510 H   0  0  0  0  0  0  0  0  0  0  0  0
    6.0260   -4.0880    5.1940 O   0  0  0  0  0  0  0  0  0  0  0  0
    4.6830   -4.4260    5.5360 C   0  0  0  0  0  2  0  0  0  0  0  0
    4.0320   -3.1940    6.1150 C   0  0  0  0  0  0  0  0  0  0  0  0
    4.7580   -2.4090    7.0300 C   0  0  0  0  0  3  0  0  0  0  0  0
    4.2080   -1.2470    7.5740 C   0  0  0  0  0  3  0  0  0  0  0  0
    2.9280   -0.8440    7.2050 C   0  0  0  0  0  3  0  0  0  0  0  0
    2.2000   -1.6020    6.2890 C   0  0  0  0  0  3  0  0  0  0  0  0
    2.7480   -2.7680    5.7410 C   0  0  0  0  0  0  0  0  0  0  0  0
    1.7920   -3.6380    4.5960 Cl  0  0  0  0  0  0  0  0  0  0  0  0
  1  2  1  0  0  0  0
  2  3  2  0  0  0  0
  4  3  1  0  0  0  0
  5  1  2  0  0  0  0
  5  4  1  0  0  0  0
  6  5  1  0  0  0  0
  7  6  1  0  0  0  0
  8  7  2  0  0  0  0
  9 10  2  0  0  0  0
  9  8  1  0  0  0  0
 10 11  1  0  0  0  0
 11  6  2  0  0  0  0
 12 14  1  0  0  0  0
 12 10  1  0  0  0  0
 13 12  2  0  0  0  0
 15  8  1  0  0  0  0
 16 15  1  0  0  0  0
 17  9  1  0  0  0  0
 18 17  1  0  0  0  0
 19 20  2  0  0  0  0
 20 23  1  0  0  0  0
 21 20  1  0  0  0  0
 21  1  1  0  0  0  0
 22 21  1  0  0  0  0
 23 24  1  0  0  0  0
 24 25  1  0  0  0  0
 25 26  1  0  0  0  0
 26 27  2  0  0  0  0
 28 27  1  0  0  0  0
 29 28  2  0  0  0  0
 30 25  2  0  0  0  0
 30 29  1  0  0  0  0
 31 30  1  0  0  0  0
M  END
>  <minimizedAffinity>
-7.73509073

$$$$
