
 OpenBabel09122222393D

 31 33  0  0  0  0  0  0  0  0999 V2000
    7.7890   -2.8870    4.2410 C   0  0  0  0  0  0  0  0  0  0  0  0
    7.7710   -3.0870    5.6610 C   0  0  0  0  0  3  0  0  0  0  0  0
    8.7410   -2.3710    6.3230 C   0  0  0  0  0  3  0  0  0  0  0  0
    9.6830   -1.4480    5.2530 S   0  0  0  0  0  0  0  0  0  0  0  0
    8.7970   -1.9910    3.8750 C   0  0  0  0  0  0  0  0  0  0  0  0
    9.1730   -1.4950    2.5390 C   0  0  0  0  0  0  0  0  0  0  0  0
    9.1330   -0.1720    2.3070 N   0  0  0  0  0  0  0  0  0  0  0  0
    9.4980    0.1890    1.0730 C   0  0  0  0  0  0  0  0  0  0  0  0
    9.8940   -0.6760    0.0750 C   0  0  0  0  0  0  0  0  0  0  0  0
    9.9070   -2.0200    0.4010 C   0  0  0  0  0  0  0  0  0  0  0  0
    9.5390   -2.4380    1.6490 N   0  0  0  0  0  0  0  0  0  0  0  0
   10.3420   -3.0290   -0.6550 C   0  0  0  0  0  0  0  0  0  0  0  0
   11.4230   -2.7370   -1.2780 O   0  0  0  0  0  0  0  0  0  0  0  0
    9.6270   -4.0590   -0.8380 O   0  0  0  0  0  1  0  0  0  0  0  0
    9.4670    1.5360    0.8040 O   0  0  0  0  0  0  0  0  0  0  0  0
    9.7610    1.5770   -0.1260 H   0  0  0  0  0  0  0  0  0  0  0  0
   10.2430   -0.1600   -1.1460 O   0  0  0  0  0  0  0  0  0  0  0  0
   10.4920   -0.9560   -1.7020 H   0  0  0  0  0  0  0  0  0  0  0  0
    5.1080   -4.5930    2.5380 O   0  0  0  0  0  0  0  0  0  0  0  0
    5.8110   -4.2250    3.4720 C   0  0  0  0  0  0  0  0  0  0  0  0
    6.9340   -3.4600    3.2940 N   0  0  0  0  0  0  0  0  0  0  0  0
    7.1710   -3.2980    2.3090 H   0  0  0  0  0  0  0  0  0  0  0  0
    5.5500   -4.5650    4.7620 O   0  0  0  0  0  0  0  0  0  0  0  0
    4.1900   -4.9160    5.0080 C   0  0  0  0  0  2  0  0  0  0  0  0
    3.4820   -3.6850    5.5190 C   0  0  0  0  0  0  0  0  0  0  0  0
    2.4690   -3.1090    4.7300 C   0  0  0  0  0  3  0  0  0  0  0  0
    1.7670   -1.9860    5.1700 C   0  0  0  0  0  3  0  0  0  0  0  0
    2.0590   -1.4250    6.4090 C   0  0  0  0  0  3  0  0  0  0  0  0
    3.0500   -1.9910    7.2100 C   0  0  0  0  0  3  0  0  0  0  0  0
    3.7550   -3.1180    6.7730 C   0  0  0  0  0  0  0  0  0  0  0  0
    4.9510   -3.7730    7.8330 Cl  0  0  0  0  0  0  0  0  0  0  0  0
  1  2  1  0  0  0  0
  2  3  2  0  0  0  0
  4  3  1  0  0  0  0
  5  1  2  0  0  0  0
  5  4  1  0  0  0  0
  6  5  1  0  0  0  0
  7  6  1  0  0  0  0
  8  7  2  0  0  0  0
  9 10  2  0  0  0  0
  9  8  1  0  0  0  0
 10 11  1  0  0  0  0
 11  6  2  0  0  0  0
 12 10  1  0  0  0  0
 13 12  2  0  0  0  0
 14 12  1  0  0  0  0
 15  8  1  0  0  0  0
 16 15  1  0  0  0  0
 17  9  1  0  0  0  0
 18 17  1  0  0  0  0
 19 20  2  0  0  0  0
 20 23  1  0  0  0  0
 21 20  1  0  0  0  0
 21  1  1  0  0  0  0
 22 21  1  0  0  0  0
 23 24  1  0  0  0  0
 24 25  1  0  0  0  0
 25 30  1  0  0  0  0
 26 27  1  0  0  0  0
 26 25  2  0  0  0  0
 27 28  2  0  0  0  0
 28 29  1  0  0  0  0
 30 29  2  0  0  0  0
 30 31  1  0  0  0  0
M  END
>  <minimizedAffinity>
-7.51663399

$$$$
