
 OpenBabel09122222393D

 31 33  0  0  0  0  0  0  0  0999 V2000
    7.7810   -4.5920    1.7290 C   0  0  0  0  0  0  0  0  0  0  0  0
    7.9740   -5.2220    0.4550 C   0  0  0  0  0  3  0  0  0  0  0  0
    6.8240   -5.7730   -0.0570 C   0  0  0  0  0  3  0  0  0  0  0  0
    5.4980   -5.5420    0.9780 S   0  0  0  0  0  0  0  0  0  0  0  0
    6.4480   -4.6860    2.1370 C   0  0  0  0  0  0  0  0  0  0  0  0
    5.8040   -4.1830    3.3630 C   0  0  0  0  0  0  0  0  0  0  0  0
    6.5760   -3.8640    4.4150 N   0  0  0  0  0  0  0  0  0  0  0  0
    5.9090   -3.4080    5.4790 C   0  0  0  0  0  0  0  0  0  0  0  0
    4.5420   -3.2530    5.5550 C   0  0  0  0  0  0  0  0  0  0  0  0
    3.8230   -3.6040    4.4260 C   0  0  0  0  0  0  0  0  0  0  0  0
    4.4610   -4.0790    3.3140 N   0  0  0  0  0  0  0  0  0  0  0  0
    2.3080   -3.4490    4.4400 C   0  0  0  0  0  0  0  0  0  0  0  0
    1.8760   -2.2600    4.2360 O   0  0  0  0  0  0  0  0  0  0  0  0
    1.5970   -4.4780    4.6470 O   0  0  0  0  0  1  0  0  0  0  0  0
    6.6720   -3.0740    6.5720 O   0  0  0  0  0  0  0  0  0  0  0  0
    6.0040   -2.7740    7.2170 H   0  0  0  0  0  0  0  0  0  0  0  0
    3.9950   -2.7710    6.7150 O   0  0  0  0  0  0  0  0  0  0  0  0
    3.0070   -2.7410    6.5430 H   0  0  0  0  0  0  0  0  0  0  0  0
   10.1660   -2.2590    3.0970 O   0  0  0  0  0  0  0  0  0  0  0  0
    9.3980   -2.7540    2.2800 C   0  0  0  0  0  0  0  0  0  0  0  0
    8.7450   -3.9370    2.5040 N   0  0  0  0  0  0  0  0  0  0  0  0
    9.0210   -4.4030    3.3760 H   0  0  0  0  0  0  0  0  0  0  0  0
    9.1500   -2.1840    1.0710 O   0  0  0  0  0  0  0  0  0  0  0  0
    9.1750   -0.7590    1.0830 C   0  0  0  0  0  2  0  0  0  0  0  0
    9.9780   -0.3020   -0.1100 C   0  0  0  0  0  0  0  0  0  0  0  0
   10.2930   -1.2370   -1.1130 C   0  0  0  0  0  3  0  0  0  0  0  0
   11.0110   -0.8580   -2.2480 C   0  0  0  0  0  3  0  0  0  0  0  0
   11.4180    0.4640   -2.4050 C   0  0  0  0  0  3  0  0  0  0  0  0
   11.1010    1.4070   -1.4280 C   0  0  0  0  0  3  0  0  0  0  0  0
   10.3800    1.0300   -0.2890 C   0  0  0  0  0  0  0  0  0  0  0  0
   10.0090    2.2620    0.8630 Cl  0  0  0  0  0  0  0  0  0  0  0  0
  1  5  2  0  0  0  0
  1 21  1  0  0  0  0
  2  1  1  0  0  0  0
  3  2  2  0  0  0  0
  3  4  1  0  0  0  0
  4  5  1  0  0  0  0
  5  6  1  0  0  0  0
  6  7  1  0  0  0  0
  7  8  2  0  0  0  0
  8  9  1  0  0  0  0
  8 15  1  0  0  0  0
  9 17  1  0  0  0  0
 10 12  1  0  0  0  0
 10  9  2  0  0  0  0
 11  6  2  0  0  0  0
 11 10  1  0  0  0  0
 12 14  1  0  0  0  0
 13 12  2  0  0  0  0
 15 16  1  0  0  0  0
 18 17  1  0  0  0  0
 20 21  1  0  0  0  0
 20 19  2  0  0  0  0
 21 22  1  0  0  0  0
 23 24  1  0  0  0  0
 23 20  1  0  0  0  0
 25 24  1  0  0  0  0
 26 25  2  0  0  0  0
 27 26  1  0  0  0  0
 28 27  2  0  0  0  0
 28 29  1  0  0  0  0
 29 30  2  0  0  0  0
 30 25  1  0  0  0  0
 30 31  1  0  0  0  0
M  END
>  <minimizedAffinity>
-7.10285378

$$$$
