
 OpenBabel09122222393D

 31 33  0  0  0  0  0  0  0  0999 V2000
    7.5520   -4.5950    1.9700 C   0  0  0  0  0  0  0  0  0  0  0  0
    7.8990   -5.3210    0.7820 C   0  0  0  0  0  3  0  0  0  0  0  0
    6.8220   -5.9360    0.1890 C   0  0  0  0  0  3  0  0  0  0  0  0
    5.3820   -5.6500    1.0420 S   0  0  0  0  0  0  0  0  0  0  0  0
    6.1820   -4.6840    2.2290 C   0  0  0  0  0  0  0  0  0  0  0  0
    5.3930   -4.0970    3.3270 C   0  0  0  0  0  0  0  0  0  0  0  0
    4.1530   -3.6540    3.0660 N   0  0  0  0  0  0  0  0  0  0  0  0
    3.5080   -3.1460    4.1200 C   0  0  0  0  0  0  0  0  0  0  0  0
    4.0180   -3.0560    5.3970 C   0  0  0  0  0  0  0  0  0  0  0  0
    5.3030   -3.5370    5.5770 C   0  0  0  0  0  0  0  0  0  0  0  0
    6.0030   -4.0630    4.5280 N   0  0  0  0  0  0  0  0  0  0  0  0
    5.9240   -3.4750    6.9670 C   0  0  0  0  0  0  0  0  0  0  0  0
    6.2960   -4.6010    7.4520 O   0  0  0  0  0  0  0  0  0  0  0  0
    6.0280   -2.3450    7.5330 O   0  0  0  0  0  1  0  0  0  0  0  0
    2.2360   -2.6830    3.8840 O   0  0  0  0  0  0  0  0  0  0  0  0
    1.9560   -2.3640    4.7640 H   0  0  0  0  0  0  0  0  0  0  0  0
    3.2390   -2.5110    6.3830 O   0  0  0  0  0  0  0  0  0  0  0  0
    3.8030   -2.5490    7.2110 H   0  0  0  0  0  0  0  0  0  0  0  0
    9.5410   -2.0250    3.5330 O   0  0  0  0  0  0  0  0  0  0  0  0
    8.8460   -2.5660    2.6800 C   0  0  0  0  0  0  0  0  0  0  0  0
    8.4120   -3.8600    2.7940 N   0  0  0  0  0  0  0  0  0  0  0  0
    8.7880   -4.3520    3.6120 H   0  0  0  0  0  0  0  0  0  0  0  0
    8.4680   -1.9350    1.5370 O   0  0  0  0  0  0  0  0  0  0  0  0
    9.4890   -1.8710    0.5430 C   0  0  0  0  0  2  0  0  0  0  0  0
    9.8170   -0.4160    0.3130 C   0  0  0  0  0  0  0  0  0  0  0  0
    9.4690    0.5220    1.3020 C   0  0  0  0  0  3  0  0  0  0  0  0
    9.7740    1.8750    1.1470 C   0  0  0  0  0  3  0  0  0  0  0  0
   10.4410    2.3120    0.0070 C   0  0  0  0  0  3  0  0  0  0  0  0
   10.8060    1.3930   -0.9770 C   0  0  0  0  0  3  0  0  0  0  0  0
   10.5030    0.0360   -0.8250 C   0  0  0  0  0  0  0  0  0  0  0  0
   11.0090   -1.0400   -2.0770 Cl  0  0  0  0  0  0  0  0  0  0  0  0
  1  5  2  0  0  0  0
  1 21  1  0  0  0  0
  2  1  1  0  0  0  0
  3  2  2  0  0  0  0
  3  4  1  0  0  0  0
  4  5  1  0  0  0  0
  5  6  1  0  0  0  0
  6 11  2  0  0  0  0
  7  6  1  0  0  0  0
  7  8  2  0  0  0  0
  8  9  1  0  0  0  0
  9 10  2  0  0  0  0
  9 17  1  0  0  0  0
 10 12  1  0  0  0  0
 11 10  1  0  0  0  0
 12 13  2  0  0  0  0
 12 14  1  0  0  0  0
 15  8  1  0  0  0  0
 15 16  1  0  0  0  0
 17 18  1  0  0  0  0
 20 21  1  0  0  0  0
 20 19  2  0  0  0  0
 21 22  1  0  0  0  0
 23 20  1  0  0  0  0
 24 23  1  0  0  0  0
 25 24  1  0  0  0  0
 25 26  1  0  0  0  0
 27 26  2  0  0  0  0
 28 27  1  0  0  0  0
 29 30  1  0  0  0  0
 29 28  2  0  0  0  0
 30 25  2  0  0  0  0
 31 30  1  0  0  0  0
M  END
>  <minimizedAffinity>
-7.30667114

$$$$
