
 OpenBabel09122219043D

 41 46  0  0  1  0  0  0  0  0999 V2000
    4.8500   -7.3240   -1.2420 O   0  0  0  0  0  0  0  0  0  0  0  0
    5.2910   -7.2010   -0.1030 C   0  0  0  0  0  0  0  0  0  0  0  0
    4.8510   -7.9630    0.9380 N   0  0  0  0  0  0  0  0  0  0  0  0
    4.2060   -8.7220    0.7240 H   0  0  0  0  0  0  0  0  0  0  0  0
    6.3070   -6.1610    0.1470 C   0  0  0  0  0  0  0  0  0  0  0  0
    7.1210   -5.7620   -0.9170 C   0  0  0  0  0  3  0  0  0  0  0  0
    8.1230   -4.8040   -0.7360 C   0  0  0  0  0  3  0  0  0  0  0  0
    8.2920   -4.2810    0.5550 C   0  0  0  0  0  0  0  0  0  0  0  0
    7.4910   -4.6810    1.6220 C   0  0  0  0  0  0  0  0  0  0  0  0
    6.4890   -5.6420    1.4330 C   0  0  0  0  0  3  0  0  0  0  0  0
    7.8350   -4.0120    2.7650 N   0  0  0  0  0  0  0  0  0  0  0  0
    8.7760   -3.1530    2.4240 C   0  0  0  0  0  0  0  0  0  0  0  0
    9.1750   -3.3730    1.1150 N   0  0  0  0  0  0  0  0  0  0  0  0
   10.3600   -2.8220    0.4670 C   0  0  0  0  0  3  0  0  0  0  0  0
   11.3360   -3.8890   -0.0660 C   0  0  0  0  0  2  0  0  0  0  0  0
   12.5820   -3.2430   -0.6680 C   0  0  0  0  0  2  0  0  0  0  0  0
   12.2200   -2.2220   -1.7440 C   0  0  0  0  0  2  0  0  0  0  0  0
   11.2600   -1.1600   -1.2150 C   0  0  0  0  0  2  0  0  0  0  0  0
   10.0050   -1.7820   -0.6050 C   0  0  0  0  0  2  0  0  0  0  0  0
    9.2500   -2.1260    3.4010 C   0  0  0  0  0  0  0  0  0  0  0  0
    9.7770   -2.2360    4.7120 C   0  0  0  0  0  3  0  0  0  0  0  0
   10.0680   -0.9530    5.1200 C   0  0  0  0  0  3  0  0  0  0  0  0
    9.7690   -0.0610    4.1410 O   0  0  0  0  0  0  0  0  0  0  0  0
    9.2910   -0.7820    3.0940 C   0  0  0  0  0  3  0  0  0  0  0  0
    5.1020   -7.8630    2.4000 C   0  0  2  0  0  3  0  0  0  0  0  0
    6.2280   -8.8250    2.8950 C   0  0  0  0  0  0  0  0  0  0  0  0
    7.4000   -8.5330    2.5210 O   0  0  0  0  0  0  0  0  0  0  0  0
    5.8140   -9.8270    3.5560 O   0  0  0  0  0  1  0  0  0  0  0  0
    3.8470   -8.0810    3.2610 C   0  0  0  0  0  2  0  0  0  0  0  0
    3.7160   -7.1920    4.4710 C   0  0  0  0  0  0  0  0  0  0  0  0
    3.5140   -7.6010    5.7760 C   0  0  0  0  0  3  0  0  0  0  0  0
    3.4710   -6.4930    6.5740 N   0  0  0  0  0  0  0  0  0  0  0  0
    3.5820   -5.3520    5.8170 C   0  0  0  0  0  0  0  0  0  0  0  0
    3.5670   -4.0060    6.2050 C   0  0  0  0  0  3  0  0  0  0  0  0
    3.7250   -3.0410    5.2070 C   0  0  0  0  0  3  0  0  0  0  0  0
    3.8960   -3.4220    3.8800 C   0  0  0  0  0  0  0  0  0  0  0  0
    3.9130   -4.7650    3.5020 C   0  0  0  0  0  3  0  0  0  0  0  0
    3.7490   -5.7580    4.4910 C   0  0  0  0  0  0  0  0  0  0  0  0
    3.3820   -6.5090    7.5790 H   0  0  0  0  0  0  0  0  0  0  0  0
    4.0540   -2.4810    2.9010 O   0  0  0  0  0  0  0  0  0  0  0  0
    4.3430   -1.6600    3.3260 H   0  0  0  0  0  0  0  0  0  0  0  0
  1  2  2  0  0  0  0
  2  5  1  0  0  0  0
  2  3  1  0  0  0  0
  3 25  1  0  0  0  0
  4  3  1  0  0  0  0
  5 10  1  0  0  0  0
  6  7  1  0  0  0  0
  6  5  2  0  0  0  0
  7  8  2  0  0  0  0
  8 13  1  0  0  0  0
  8  9  1  0  0  0  0
  9 11  1  0  0  0  0
 10  9  2  0  0  0  0
 12 11  2  0  0  0  0
 12 20  1  0  0  0  0
 13 12  1  0  0  0  0
 14 13  1  0  0  0  0
 15 14  1  0  0  0  0
 16 15  1  0  0  0  0
 17 18  1  0  0  0  0
 17 16  1  0  0  0  0
 18 19  1  0  0  0  0
 19 14  1  0  0  0  0
 20 21  1  0  0  0  0
 21 22  2  0  0  0  0
 23 22  1  0  0  0  0
 24 20  2  0  0  0  0
 24 23  1  0  0  0  0
 25 26  1  0  0  0  0
 25 29  1  1  0  0  0
 26 28  1  0  0  0  0
 27 26  2  0  0  0  0
 29 30  1  0  0  0  0
 30 38  1  0  0  0  0
 30 31  2  0  0  0  0
 31 32  1  0  0  0  0
 32 39  1  0  0  0  0
 33 34  1  0  0  0  0
 33 32  1  0  0  0  0
 35 34  2  0  0  0  0
 36 35  1  0  0  0  0
 37 36  2  0  0  0  0
 37 38  1  0  0  0  0
 38 33  2  0  0  0  0
 40 41  1  0  0  0  0
 40 36  1  0  0  0  0
M  END
>  <minimizedAffinity>
-10.0736237

$$$$

 OpenBabel09122219043D

 41 46  0  0  1  0  0  0  0  0999 V2000
    4.7830   -7.5900   -1.1340 O   0  0  0  0  0  0  0  0  0  0  0  0
    5.1870   -7.4810    0.0200 C   0  0  0  0  0  0  0  0  0  0  0  0
    4.6660   -8.2070    1.0490 N   0  0  0  0  0  0  0  0  0  0  0  0
    3.9890   -8.9320    0.8150 H   0  0  0  0  0  0  0  0  0  0  0  0
    6.2470   -6.4950    0.3000 C   0  0  0  0  0  0  0  0  0  0  0  0
    6.4490   -6.0980    1.6250 C   0  0  0  0  0  3  0  0  0  0  0  0
    7.4180   -5.1420    1.9500 C   0  0  0  0  0  3  0  0  0  0  0  0
    8.1550   -4.5850    0.8950 C   0  0  0  0  0  0  0  0  0  0  0  0
    7.9530   -4.9690   -0.4290 C   0  0  0  0  0  0  0  0  0  0  0  0
    6.9810   -5.9260   -0.7470 C   0  0  0  0  0  3  0  0  0  0  0  0
    8.8080   -4.3020   -1.2640 N   0  0  0  0  0  0  0  0  0  0  0  0
    9.5880   -3.5710   -0.4910 C   0  0  0  0  0  0  0  0  0  0  0  0
    9.1410   -3.6150    0.8200 N   0  0  0  0  0  0  0  0  0  0  0  0
    9.5620   -2.7390    1.9080 C   0  0  0  0  0  3  0  0  0  0  0  0
    8.8250   -1.3870    1.9460 C   0  0  0  0  0  2  0  0  0  0  0  0
    9.3630   -0.4960    3.0640 C   0  0  0  0  0  2  0  0  0  0  0  0
    9.3140   -1.2040    4.4160 C   0  0  0  0  0  2  0  0  0  0  0  0
   10.0520   -2.5400    4.3820 C   0  0  0  0  0  2  0  0  0  0  0  0
    9.5310   -3.4480    3.2690 C   0  0  0  0  0  2  0  0  0  0  0  0
   10.7660   -2.8550   -1.0690 C   0  0  0  0  0  0  0  0  0  0  0  0
   11.9670   -3.3260   -1.6550 C   0  0  0  0  0  3  0  0  0  0  0  0
   12.6750   -2.2080   -2.0360 C   0  0  0  0  0  3  0  0  0  0  0  0
   11.9810   -1.0800   -1.7390 O   0  0  0  0  0  0  0  0  0  0  0  0
   10.8150   -1.4810   -1.1700 C   0  0  0  0  0  3  0  0  0  0  0  0
    4.8670   -8.1070    2.5180 C   0  0  2  0  0  3  0  0  0  0  0  0
    5.8120   -9.2140    3.0840 C   0  0  0  0  0  0  0  0  0  0  0  0
    5.2360  -10.2420    3.5440 O   0  0  0  0  0  1  0  0  0  0  0  0
    7.0450   -8.9130    3.0740 O   0  0  0  0  0  0  0  0  0  0  0  0
    3.5580   -8.1110    3.3250 C   0  0  0  0  0  2  0  0  0  0  0  0
    3.5340   -7.2290    4.5460 C   0  0  0  0  0  0  0  0  0  0  0  0
    3.4030   -7.6420    5.8590 C   0  0  0  0  0  3  0  0  0  0  0  0
    3.4480   -6.5410    6.6650 N   0  0  0  0  0  0  0  0  0  0  0  0
    3.5490   -5.3970    5.9110 C   0  0  0  0  0  0  0  0  0  0  0  0
    3.6040   -4.0550    6.3080 C   0  0  0  0  0  3  0  0  0  0  0  0
    3.7300   -3.0870    5.3080 C   0  0  0  0  0  3  0  0  0  0  0  0
    3.8020   -3.4620    3.9700 C   0  0  0  0  0  0  0  0  0  0  0  0
    3.7500   -4.8010    3.5830 C   0  0  0  0  0  3  0  0  0  0  0  0
    3.6170   -5.7980    4.5740 C   0  0  0  0  0  0  0  0  0  0  0  0
    3.4230   -6.5630    7.6740 H   0  0  0  0  0  0  0  0  0  0  0  0
    3.9290   -2.5190    2.9900 O   0  0  0  0  0  0  0  0  0  0  0  0
    4.2710   -1.7110    3.4000 H   0  0  0  0  0  0  0  0  0  0  0  0
  1  2  2  0  0  0  0
  2  5  1  0  0  0  0
  2  3  1  0  0  0  0
  3 25  1  0  0  0  0
  4  3  1  0  0  0  0
  5  6  1  0  0  0  0
  6  7  2  0  0  0  0
  8  7  1  0  0  0  0
  9  8  2  0  0  0  0
 10  9  1  0  0  0  0
 10  5  2  0  0  0  0
 11 12  2  0  0  0  0
 11  9  1  0  0  0  0
 12 13  1  0  0  0  0
 13  8  1  0  0  0  0
 13 14  1  0  0  0  0
 14 15  1  0  0  0  0
 14 19  1  0  0  0  0
 15 16  1  0  0  0  0
 16 17  1  0  0  0  0
 18 17  1  0  0  0  0
 19 18  1  0  0  0  0
 20 12  1  0  0  0  0
 21 20  1  0  0  0  0
 22 23  1  0  0  0  0
 22 21  2  0  0  0  0
 23 24  1  0  0  0  0
 24 20  2  0  0  0  0
 25 26  1  0  0  0  0
 25 29  1  1  0  0  0
 26 27  1  0  0  0  0
 28 26  2  0  0  0  0
 29 30  1  0  0  0  0
 30 38  1  0  0  0  0
 30 31  2  0  0  0  0
 31 32  1  0  0  0  0
 32 39  1  0  0  0  0
 33 34  1  0  0  0  0
 33 32  1  0  0  0  0
 35 34  2  0  0  0  0
 36 35  1  0  0  0  0
 37 36  2  0  0  0  0
 37 38  1  0  0  0  0
 38 33  2  0  0  0  0
 40 41  1  0  0  0  0
 40 36  1  0  0  0  0
M  END
>  <minimizedAffinity>
-9.51195431

$$$$

 OpenBabel09122219043D

 41 46  0  0  1  0  0  0  0  0999 V2000
    4.5540   -6.9840   -1.0470 O   0  0  0  0  0  0  0  0  0  0  0  0
    5.1750   -7.0150    0.0120 C   0  0  0  0  0  0  0  0  0  0  0  0
    4.8910   -7.9100    1.0000 N   0  0  0  0  0  0  0  0  0  0  0  0
    4.2050   -8.6340    0.7930 H   0  0  0  0  0  0  0  0  0  0  0  0
    6.2370   -6.0150    0.2300 C   0  0  0  0  0  0  0  0  0  0  0  0
    7.0610   -5.6790   -0.8480 C   0  0  0  0  0  3  0  0  0  0  0  0
    8.1060   -4.7620   -0.6950 C   0  0  0  0  0  3  0  0  0  0  0  0
    8.3070   -4.2170    0.5820 C   0  0  0  0  0  0  0  0  0  0  0  0
    7.4960   -4.5540    1.6630 C   0  0  0  0  0  0  0  0  0  0  0  0
    6.4510   -5.4740    1.5030 C   0  0  0  0  0  3  0  0  0  0  0  0
    7.8780   -3.8750    2.7870 N   0  0  0  0  0  0  0  0  0  0  0  0
    8.8540   -3.0670    2.4190 C   0  0  0  0  0  0  0  0  0  0  0  0
    9.2330   -3.3360    1.1140 N   0  0  0  0  0  0  0  0  0  0  0  0
   10.4370   -2.8540    0.4460 C   0  0  0  0  0  3  0  0  0  0  0  0
   11.3490   -3.9760   -0.0890 C   0  0  0  0  0  2  0  0  0  0  0  0
   12.6190   -3.4020   -0.7130 C   0  0  0  0  0  2  0  0  0  0  0  0
   12.2980   -2.3730   -1.7930 C   0  0  0  0  0  2  0  0  0  0  0  0
   11.4020   -1.2570   -1.2620 C   0  0  0  0  0  2  0  0  0  0  0  0
   10.1230   -1.8060   -0.6310 C   0  0  0  0  0  2  0  0  0  0  0  0
    9.3790   -2.0390    3.3690 C   0  0  0  0  0  0  0  0  0  0  0  0
   10.0720   -2.1510    4.6000 C   0  0  0  0  0  3  0  0  0  0  0  0
   10.3290   -0.8640    5.0170 C   0  0  0  0  0  3  0  0  0  0  0  0
    9.8550    0.0340    4.1160 O   0  0  0  0  0  0  0  0  0  0  0  0
    9.2970   -0.6870    3.1090 C   0  0  0  0  0  3  0  0  0  0  0  0
    5.3750   -8.0060    2.4020 C   0  0  2  0  0  3  0  0  0  0  0  0
    6.6600   -8.8810    2.5470 C   0  0  0  0  0  0  0  0  0  0  0  0
    6.4830  -10.0370    3.0300 O   0  0  0  0  0  1  0  0  0  0  0  0
    7.7390   -8.2940    2.2260 O   0  0  0  0  0  0  0  0  0  0  0  0
    4.3130   -8.5150    3.3910 C   0  0  0  0  0  2  0  0  0  0  0  0
    3.5010   -7.4540    4.0880 C   0  0  0  0  0  0  0  0  0  0  0  0
    3.7740   -6.0990    4.1270 C   0  0  0  0  0  3  0  0  0  0  0  0
    2.7880   -5.4800    4.8420 N   0  0  0  0  0  0  0  0  0  0  0  0
    1.8950   -6.4040    5.3280 C   0  0  0  0  0  0  0  0  0  0  0  0
    0.7540   -6.2270    6.1210 C   0  0  0  0  0  3  0  0  0  0  0  0
    0.0110   -7.3630    6.4520 C   0  0  0  0  0  3  0  0  0  0  0  0
    0.4030   -8.6180    5.9970 C   0  0  0  0  0  0  0  0  0  0  0  0
    1.5390   -8.7860    5.2050 C   0  0  0  0  0  3  0  0  0  0  0  0
    2.3100   -7.6540    4.8620 C   0  0  0  0  0  0  0  0  0  0  0  0
    2.7170   -4.4830    4.9830 H   0  0  0  0  0  0  0  0  0  0  0  0
   -0.3230   -9.7310    6.3160 O   0  0  0  0  0  0  0  0  0  0  0  0
   -1.2120   -9.4410    6.5680 H   0  0  0  0  0  0  0  0  0  0  0  0
  1  2  2  0  0  0  0
  2  5  1  0  0  0  0
  2  3  1  0  0  0  0
  3 25  1  0  0  0  0
  4  3  1  0  0  0  0
  5 10  1  0  0  0  0
  6  7  1  0  0  0  0
  6  5  2  0  0  0  0
  7  8  2  0  0  0  0
  8 13  1  0  0  0  0
  8  9  1  0  0  0  0
  9 11  1  0  0  0  0
 10  9  2  0  0  0  0
 12 11  2  0  0  0  0
 12 20  1  0  0  0  0
 13 12  1  0  0  0  0
 14 13  1  0  0  0  0
 15 14  1  0  0  0  0
 16 15  1  0  0  0  0
 17 18  1  0  0  0  0
 17 16  1  0  0  0  0
 18 19  1  0  0  0  0
 19 14  1  0  0  0  0
 20 21  1  0  0  0  0
 21 22  2  0  0  0  0
 23 22  1  0  0  0  0
 24 20  2  0  0  0  0
 24 23  1  0  0  0  0
 25 26  1  0  0  0  0
 25 29  1  1  0  0  0
 26 27  1  0  0  0  0
 28 26  2  0  0  0  0
 29 30  1  0  0  0  0
 30 31  2  0  0  0  0
 30 38  1  0  0  0  0
 31 32  1  0  0  0  0
 32 39  1  0  0  0  0
 32 33  1  0  0  0  0
 33 34  1  0  0  0  0
 34 35  2  0  0  0  0
 36 40  1  0  0  0  0
 36 35  1  0  0  0  0
 37 36  2  0  0  0  0
 38 37  1  0  0  0  0
 38 33  2  0  0  0  0
 40 41  1  0  0  0  0
M  END
>  <minimizedAffinity>
-8.69373608

$$$$

 OpenBabel09122219043D

 41 46  0  0  1  0  0  0  0  0999 V2000
    6.6430   -9.6120    2.5620 O   0  0  0  0  0  0  0  0  0  0  0  0
    6.3500   -8.4550    2.2710 C   0  0  0  0  0  0  0  0  0  0  0  0
    6.9990   -7.7600    1.2950 N   0  0  0  0  0  0  0  0  0  0  0  0
    7.6800   -8.2670    0.7320 H   0  0  0  0  0  0  0  0  0  0  0  0
    5.2820   -7.7900    3.0400 C   0  0  0  0  0  0  0  0  0  0  0  0
    4.2880   -8.5840    3.6170 C   0  0  0  0  0  3  0  0  0  0  0  0
    3.2310   -8.0090    4.3300 C   0  0  0  0  0  3  0  0  0  0  0  0
    3.1980   -6.6100    4.4200 C   0  0  0  0  0  0  0  0  0  0  0  0
    4.1800   -5.8110    3.8400 C   0  0  0  0  0  0  0  0  0  0  0  0
    5.2350   -6.3940    3.1260 C   0  0  0  0  0  3  0  0  0  0  0  0
    3.9380   -4.4870    4.0870 N   0  0  0  0  0  0  0  0  0  0  0  0
    2.8760   -4.4430    4.8690 C   0  0  0  0  0  0  0  0  0  0  0  0
    2.3180   -5.7050    4.9910 N   0  0  0  0  0  0  0  0  0  0  0  0
    1.0030   -6.0210    5.5380 C   0  0  0  0  0  3  0  0  0  0  0  0
   -0.1170   -6.0850    4.4810 C   0  0  0  0  0  2  0  0  0  0  0  0
   -1.4730   -6.3510    5.1310 C   0  0  0  0  0  2  0  0  0  0  0  0
   -1.4430   -7.6070    5.9980 C   0  0  0  0  0  2  0  0  0  0  0  0
   -0.3400   -7.5410    7.0510 C   0  0  0  0  0  2  0  0  0  0  0  0
    1.0280   -7.2740    6.4250 C   0  0  0  0  0  2  0  0  0  0  0  0
    2.4470   -3.1510    5.4860 C   0  0  0  0  0  0  0  0  0  0  0  0
    2.7100   -2.5720    6.7520 C   0  0  0  0  0  3  0  0  0  0  0  0
    2.0740   -1.3500    6.7580 C   0  0  0  0  0  3  0  0  0  0  0  0
    1.4490   -1.1330    5.5730 O   0  0  0  0  0  0  0  0  0  0  0  0
    1.6960   -2.2210    4.7990 C   0  0  0  0  0  3  0  0  0  0  0  0
    6.9390   -6.3250    0.9110 C   0  0  2  0  0  3  0  0  0  0  0  0
    6.1420   -6.0780   -0.4090 C   0  0  0  0  0  0  0  0  0  0  0  0
    4.9970   -6.6120   -0.4630 O   0  0  0  0  0  1  0  0  0  0  0  0
    6.7750   -5.4260   -1.2950 O   0  0  0  0  0  0  0  0  0  0  0  0
    8.3190   -5.6570    0.7900 C   0  0  0  0  0  2  0  0  0  0  0  0
    8.4090   -4.2370    1.2830 C   0  0  0  0  0  0  0  0  0  0  0  0
    7.8230   -3.7210    2.4250 C   0  0  0  0  0  3  0  0  0  0  0  0
    8.1610   -2.4020    2.5270 N   0  0  0  0  0  0  0  0  0  0  0  0
    8.9130   -2.0140    1.4440 C   0  0  0  0  0  0  0  0  0  0  0  0
    9.4550   -0.7630    1.1220 C   0  0  0  0  0  3  0  0  0  0  0  0
   10.2070   -0.6640   -0.0510 C   0  0  0  0  0  3  0  0  0  0  0  0
   10.4050   -1.7810   -0.8570 C   0  0  0  0  0  0  0  0  0  0  0  0
    9.8650   -3.0240   -0.5280 C   0  0  0  0  0  3  0  0  0  0  0  0
    9.0960   -3.1490    0.6490 C   0  0  0  0  0  0  0  0  0  0  0  0
    7.9060   -1.7990    3.2940 H   0  0  0  0  0  0  0  0  0  0  0  0
   11.1430   -1.6890   -2.0030 O   0  0  0  0  0  0  0  0  0  0  0  0
   11.7010   -0.9010   -1.9320 H   0  0  0  0  0  0  0  0  0  0  0  0
  2  1  2  0  0  0  0
  2  5  1  0  0  0  0
  3  2  1  0  0  0  0
  4  3  1  0  0  0  0
  5 10  2  0  0  0  0
  5  6  1  0  0  0  0
  6  7  2  0  0  0  0
  7  8  1  0  0  0  0
  8 13  1  0  0  0  0
  9 11  1  0  0  0  0
  9  8  2  0  0  0  0
 10  9  1  0  0  0  0
 11 12  2  0  0  0  0
 12 13  1  0  0  0  0
 12 20  1  0  0  0  0
 13 14  1  0  0  0  0
 14 19  1  0  0  0  0
 15 16  1  0  0  0  0
 15 14  1  0  0  0  0
 16 17  1  0  0  0  0
 17 18  1  0  0  0  0
 19 18  1  0  0  0  0
 20 21  1  0  0  0  0
 21 22  2  0  0  0  0
 23 22  1  0  0  0  0
 24 20  2  0  0  0  0
 24 23  1  0  0  0  0
 25 29  1  6  0  0  0
 25  3  1  0  0  0  0
 26 25  1  0  0  0  0
 27 26  1  0  0  0  0
 28 26  2  0  0  0  0
 29 30  1  0  0  0  0
 30 31  2  0  0  0  0
 31 32  1  0  0  0  0
 32 39  1  0  0  0  0
 33 32  1  0  0  0  0
 34 33  1  0  0  0  0
 35 34  2  0  0  0  0
 36 37  2  0  0  0  0
 36 35  1  0  0  0  0
 37 38  1  0  0  0  0
 38 30  1  0  0  0  0
 38 33  2  0  0  0  0
 40 41  1  0  0  0  0
 40 36  1  0  0  0  0
M  END
>  <minimizedAffinity>
-8.33831787

$$$$

 OpenBabel09122219043D

 41 46  0  0  1  0  0  0  0  0999 V2000
    7.4730   -5.0260   -1.5620 O   0  0  0  0  0  0  0  0  0  0  0  0
    7.7490   -4.8680   -0.3760 C   0  0  0  0  0  0  0  0  0  0  0  0
    8.7350   -4.0250    0.0390 N   0  0  0  0  0  0  0  0  0  0  0  0
    9.1790   -3.4390   -0.6670 H   0  0  0  0  0  0  0  0  0  0  0  0
    7.0080   -5.6570    0.6260 C   0  0  0  0  0  0  0  0  0  0  0  0
    7.3180   -7.0130    0.7630 C   0  0  0  0  0  3  0  0  0  0  0  0
    6.6280   -7.8200    1.6730 C   0  0  0  0  0  3  0  0  0  0  0  0
    5.6020   -7.2220    2.4190 C   0  0  0  0  0  0  0  0  0  0  0  0
    5.2810   -5.8730    2.2820 C   0  0  0  0  0  0  0  0  0  0  0  0
    5.9760   -5.0710    1.3670 C   0  0  0  0  0  3  0  0  0  0  0  0
    4.2670   -5.5260    3.1320 N   0  0  0  0  0  0  0  0  0  0  0  0
    4.0000   -6.6010    3.8490 C   0  0  0  0  0  0  0  0  0  0  0  0
    4.7000   -7.6910    3.3600 N   0  0  0  0  0  0  0  0  0  0  0  0
    4.4720   -9.0910    3.7010 C   0  0  0  0  0  3  0  0  0  0  0  0
    4.5650   -9.3910    5.2100 C   0  0  0  0  0  2  0  0  0  0  0  0
    4.3850  -10.8830    5.4870 C   0  0  0  0  0  2  0  0  0  0  0  0
    3.0860  -11.4120    4.8850 C   0  0  0  0  0  2  0  0  0  0  0  0
    2.9980  -11.1220    3.3890 C   0  0  0  0  0  2  0  0  0  0  0  0
    3.1760   -9.6360    3.0860 C   0  0  0  0  0  2  0  0  0  0  0  0
    3.0630   -6.5170    5.0110 C   0  0  0  0  0  0  0  0  0  0  0  0
    1.8200   -7.1450    5.2740 C   0  0  0  0  0  3  0  0  0  0  0  0
    1.4240   -6.7120    6.5200 C   0  0  0  0  0  3  0  0  0  0  0  0
    2.3490   -5.8710    7.0490 O   0  0  0  0  0  0  0  0  0  0  0  0
    3.3500   -5.7730    6.1360 C   0  0  0  0  0  3  0  0  0  0  0  0
    9.3510   -3.8220    1.3760 C   0  0  2  0  0  3  0  0  0  0  0  0
    8.5120   -2.8840    2.3010 C   0  0  0  0  0  0  0  0  0  0  0  0
    8.1250   -3.3960    3.3910 O   0  0  0  0  0  1  0  0  0  0  0  0
    8.2620   -1.7410    1.8090 O   0  0  0  0  0  0  0  0  0  0  0  0
   10.7970   -3.3000    1.3200 C   0  0  0  0  0  2  0  0  0  0  0  0
   11.3450   -3.0260   -0.0560 C   0  0  0  0  0  0  0  0  0  0  0  0
   12.0770   -3.8970   -0.8410 C   0  0  0  0  0  3  0  0  0  0  0  0
   12.3650   -3.2770   -2.0230 N   0  0  0  0  0  0  0  0  0  0  0  0
   11.8900   -1.9870   -2.0170 C   0  0  0  0  0  0  0  0  0  0  0  0
   11.9750   -0.9890   -2.9960 C   0  0  0  0  0  3  0  0  0  0  0  0
   11.3710    0.2410   -2.7220 C   0  0  0  0  0  3  0  0  0  0  0  0
   10.7090    0.4470   -1.5160 C   0  0  0  0  0  0  0  0  0  0  0  0
   10.6260   -0.5540   -0.5480 C   0  0  0  0  0  3  0  0  0  0  0  0
   11.2330   -1.8030   -0.7980 C   0  0  0  0  0  0  0  0  0  0  0  0
   12.8500   -3.7070   -2.7970 H   0  0  0  0  0  0  0  0  0  0  0  0
   10.1140    1.6480   -1.2460 O   0  0  0  0  0  0  0  0  0  0  0  0
    9.9680    2.1010   -2.0900 H   0  0  0  0  0  0  0  0  0  0  0  0
  1  2  2  0  0  0  0
  2  3  1  0  0  0  0
  2  5  1  0  0  0  0
  3 25  1  0  0  0  0
  4  3  1  0  0  0  0
  5  6  2  0  0  0  0
  5 10  1  0  0  0  0
  6  7  1  0  0  0  0
  7  8  2  0  0  0  0
  8 13  1  0  0  0  0
  9  8  1  0  0  0  0
  9 11  1  0  0  0  0
 10  9  2  0  0  0  0
 11 12  2  0  0  0  0
 12 20  1  0  0  0  0
 13 14  1  0  0  0  0
 13 12  1  0  0  0  0
 14 15  1  0  0  0  0
 15 16  1  0  0  0  0
 17 16  1  0  0  0  0
 18 17  1  0  0  0  0
 19 18  1  0  0  0  0
 19 14  1  0  0  0  0
 20 21  1  0  0  0  0
 20 24  2  0  0  0  0
 21 22  2  0  0  0  0
 22 23  1  0  0  0  0
 24 23  1  0  0  0  0
 25 29  1  6  0  0  0
 25 26  1  0  0  0  0
 26 27  1  0  0  0  0
 28 26  2  0  0  0  0
 30 29  1  0  0  0  0
 31 30  2  0  0  0  0
 32 33  1  0  0  0  0
 32 31  1  0  0  0  0
 33 38  1  0  0  0  0
 34 35  1  0  0  0  0
 34 33  2  0  0  0  0
 35 36  2  0  0  0  0
 36 40  1  0  0  0  0
 36 37  1  0  0  0  0
 38 37  2  0  0  0  0
 38 30  1  0  0  0  0
 39 32  1  0  0  0  0
 41 40  1  0  0  0  0
M  END
>  <minimizedAffinity>
-8.33024597

$$$$

 OpenBabel09122219043D

 41 46  0  0  1  0  0  0  0  0999 V2000
    9.3190   -4.8360   -1.2780 O   0  0  0  0  0  0  0  0  0  0  0  0
    8.9020   -4.3450   -0.2330 C   0  0  0  0  0  0  0  0  0  0  0  0
    9.3180   -3.1290    0.2210 N   0  0  0  0  0  0  0  0  0  0  0  0
    9.9190   -2.5800   -0.3930 H   0  0  0  0  0  0  0  0  0  0  0  0
    7.9470   -5.1260    0.5760 C   0  0  0  0  0  0  0  0  0  0  0  0
    8.0680   -6.5190    0.5810 C   0  0  0  0  0  3  0  0  0  0  0  0
    7.1730   -7.3150    1.3020 C   0  0  0  0  0  3  0  0  0  0  0  0
    6.1410   -6.6640    1.9950 C   0  0  0  0  0  0  0  0  0  0  0  0
    6.0090   -5.2780    1.9870 C   0  0  0  0  0  0  0  0  0  0  0  0
    6.9090   -4.4860    1.2620 C   0  0  0  0  0  3  0  0  0  0  0  0
    4.9450   -4.8870    2.7530 N   0  0  0  0  0  0  0  0  0  0  0  0
    4.4580   -5.9840    3.2990 C   0  0  0  0  0  0  0  0  0  0  0  0
    5.0750   -7.1030    2.7630 N   0  0  0  0  0  0  0  0  0  0  0  0
    4.6350   -8.4860    2.9040 C   0  0  0  0  0  3  0  0  0  0  0  0
    4.1710   -9.1330    1.5840 C   0  0  0  0  0  2  0  0  0  0  0  0
    3.6610  -10.5540    1.8170 C   0  0  0  0  0  2  0  0  0  0  0  0
    4.7000  -11.4130    2.5330 C   0  0  0  0  0  2  0  0  0  0  0  0
    5.1530  -10.7760    3.8440 C   0  0  0  0  0  2  0  0  0  0  0  0
    5.6680   -9.3530    3.6370 C   0  0  0  0  0  2  0  0  0  0  0  0
    3.3970   -5.8970    4.3500 C   0  0  0  0  0  0  0  0  0  0  0  0
    3.0880   -6.7260    5.4560 C   0  0  0  0  0  3  0  0  0  0  0  0
    2.0200   -6.1360    6.0940 C   0  0  0  0  0  3  0  0  0  0  0  0
    1.6600   -4.9900    5.4630 O   0  0  0  0  0  0  0  0  0  0  0  0
    2.5130   -4.8400    4.4170 C   0  0  0  0  0  3  0  0  0  0  0  0
    9.0950   -2.4390    1.5190 C   0  0  2  0  0  3  0  0  0  0  0  0
    9.0800   -0.8830    1.3900 C   0  0  0  0  0  0  0  0  0  0  0  0
    8.4280   -0.2670    2.2810 O   0  0  0  0  0  1  0  0  0  0  0  0
    9.6710   -0.4320    0.3610 O   0  0  0  0  0  0  0  0  0  0  0  0
   10.0980   -2.8380    2.6130 C   0  0  0  0  0  2  0  0  0  0  0  0
    9.8760   -2.2170    3.9680 C   0  0  0  0  0  0  0  0  0  0  0  0
   10.7300   -1.3540    4.6290 C   0  0  0  0  0  3  0  0  0  0  0  0
   10.1560   -1.0030    5.8170 N   0  0  0  0  0  0  0  0  0  0  0  0
    8.9620   -1.6620    5.9870 C   0  0  0  0  0  0  0  0  0  0  0  0
    8.0530   -1.6250    7.0520 C   0  0  0  0  0  3  0  0  0  0  0  0
    6.8920   -2.3940    6.9410 C   0  0  0  0  0  3  0  0  0  0  0  0
    6.6600   -3.1590    5.8030 C   0  0  0  0  0  0  0  0  0  0  0  0
    7.5690   -3.1880    4.7450 C   0  0  0  0  0  3  0  0  0  0  0  0
    8.7530   -2.4240    4.8350 C   0  0  0  0  0  0  0  0  0  0  0  0
   10.5470   -0.3430    6.4740 H   0  0  0  0  0  0  0  0  0  0  0  0
    5.5240   -3.9100    5.6890 O   0  0  0  0  0  0  0  0  0  0  0  0
    4.8710   -3.5510    6.3080 H   0  0  0  0  0  0  0  0  0  0  0  0
  1  2  2  0  0  0  0
  2  3  1  0  0  0  0
  2  5  1  0  0  0  0
  3 25  1  0  0  0  0
  4  3  1  0  0  0  0
  5  6  2  0  0  0  0
  5 10  1  0  0  0  0
  6  7  1  0  0  0  0
  7  8  2  0  0  0  0
  8 13  1  0  0  0  0
  9  8  1  0  0  0  0
  9 11  1  0  0  0  0
 10  9  2  0  0  0  0
 11 12  2  0  0  0  0
 12 20  1  0  0  0  0
 13 14  1  0  0  0  0
 13 12  1  0  0  0  0
 14 19  1  0  0  0  0
 15 16  1  0  0  0  0
 15 14  1  0  0  0  0
 16 17  1  0  0  0  0
 17 18  1  0  0  0  0
 19 18  1  0  0  0  0
 20 24  2  0  0  0  0
 20 21  1  0  0  0  0
 21 22  2  0  0  0  0
 23 22  1  0  0  0  0
 24 23  1  0  0  0  0
 25 29  1  1  0  0  0
 26 25  1  0  0  0  0
 26 27  1  0  0  0  0
 28 26  2  0  0  0  0
 29 30  1  0  0  0  0
 30 31  2  0  0  0  0
 30 38  1  0  0  0  0
 31 32  1  0  0  0  0
 32 33  1  0  0  0  0
 32 39  1  0  0  0  0
 33 34  1  0  0  0  0
 35 34  2  0  0  0  0
 36 35  1  0  0  0  0
 37 38  1  0  0  0  0
 37 36  2  0  0  0  0
 38 33  2  0  0  0  0
 40 36  1  0  0  0  0
 40 41  1  0  0  0  0
M  END
>  <minimizedAffinity>
-7.67758751

$$$$

 OpenBabel09122219043D

 41 46  0  0  1  0  0  0  0  0999 V2000
   12.5360   -3.2020    1.2390 O   0  0  0  0  0  0  0  0  0  0  0  0
   11.5690   -2.8720    0.5580 C   0  0  0  0  0  0  0  0  0  0  0  0
   11.6910   -2.0980   -0.5570 N   0  0  0  0  0  0  0  0  0  0  0  0
   12.6340   -1.8800   -0.8760 H   0  0  0  0  0  0  0  0  0  0  0  0
   10.2270   -3.2990    0.9940 C   0  0  0  0  0  0  0  0  0  0  0  0
    9.6040   -2.5830    2.0210 C   0  0  0  0  0  3  0  0  0  0  0  0
    8.3450   -2.9590    2.5000 C   0  0  0  0  0  3  0  0  0  0  0  0
    7.7480   -4.0920    1.9270 C   0  0  0  0  0  0  0  0  0  0  0  0
    8.3660   -4.8160    0.9100 C   0  0  0  0  0  0  0  0  0  0  0  0
    9.6280   -4.4340    0.4360 C   0  0  0  0  0  3  0  0  0  0  0  0
    7.5750   -5.8570    0.5060 N   0  0  0  0  0  0  0  0  0  0  0  0
    6.4510   -5.7560    1.1880 C   0  0  0  0  0  0  0  0  0  0  0  0
    6.5640   -4.7720    2.1580 N   0  0  0  0  0  0  0  0  0  0  0  0
    5.6520   -4.5470    3.2740 C   0  0  0  0  0  3  0  0  0  0  0  0
    6.2690   -3.7410    4.4340 C   0  0  0  0  0  2  0  0  0  0  0  0
    5.2830   -3.6030    5.5930 C   0  0  0  0  0  2  0  0  0  0  0  0
    3.9570   -3.0060    5.1330 C   0  0  0  0  0  2  0  0  0  0  0  0
    3.3410   -3.8080    3.9890 C   0  0  0  0  0  2  0  0  0  0  0  0
    4.3090   -3.9610    2.8170 C   0  0  0  0  0  2  0  0  0  0  0  0
    5.2850   -6.6310    0.8550 C   0  0  0  0  0  0  0  0  0  0  0  0
    4.6770   -7.7050    1.5510 C   0  0  0  0  0  3  0  0  0  0  0  0
    3.6180   -8.1190    0.7730 C   0  0  0  0  0  3  0  0  0  0  0  0
    3.5250   -7.3600   -0.3490 O   0  0  0  0  0  0  0  0  0  0  0  0
    4.5280   -6.4470   -0.2830 C   0  0  0  0  0  3  0  0  0  0  0  0
   10.6660   -1.4370   -1.4070 C   0  0  2  0  0  3  0  0  0  0  0  0
   11.2470   -0.8800   -2.7450 C   0  0  0  0  0  0  0  0  0  0  0  0
   10.3940   -0.4670   -3.5820 O   0  0  0  0  0  0  0  0  0  0  0  0
   12.5080   -0.9770   -2.8540 O   0  0  0  0  0  1  0  0  0  0  0  0
    9.8980   -0.3130   -0.6920 C   0  0  0  0  0  2  0  0  0  0  0  0
   10.6760    0.9500   -0.4280 C   0  0  0  0  0  0  0  0  0  0  0  0
   11.5660    1.5660   -1.2870 C   0  0  0  0  0  3  0  0  0  0  0  0
   12.0420    2.6940   -0.6820 N   0  0  0  0  0  0  0  0  0  0  0  0
   11.5290    2.8100    0.5880 C   0  0  0  0  0  0  0  0  0  0  0  0
   11.7550    3.7860    1.5670 C   0  0  0  0  0  3  0  0  0  0  0  0
   11.0700    3.6600    2.7790 C   0  0  0  0  0  3  0  0  0  0  0  0
   10.1950    2.5980    2.9850 C   0  0  0  0  0  0  0  0  0  0  0  0
    9.9730    1.6320    2.0040 C   0  0  0  0  0  3  0  0  0  0  0  0
   10.6580    1.7340    0.7740 C   0  0  0  0  0  0  0  0  0  0  0  0
   12.6720    3.3560   -1.1100 H   0  0  0  0  0  0  0  0  0  0  0  0
    9.5210    2.4730    4.1670 O   0  0  0  0  0  0  0  0  0  0  0  0
    9.5140    3.3420    4.5960 H   0  0  0  0  0  0  0  0  0  0  0  0
  2  5  1  0  0  0  0
  2  1  2  0  0  0  0
  3  2  1  0  0  0  0
  4  3  1  0  0  0  0
  5  6  1  0  0  0  0
  6  7  2  0  0  0  0
  8 13  1  0  0  0  0
  8  7  1  0  0  0  0
  9  8  2  0  0  0  0
 10  9  1  0  0  0  0
 10  5  2  0  0  0  0
 11  9  1  0  0  0  0
 11 12  2  0  0  0  0
 12 13  1  0  0  0  0
 13 14  1  0  0  0  0
 14 15  1  0  0  0  0
 15 16  1  0  0  0  0
 17 16  1  0  0  0  0
 18 17  1  0  0  0  0
 19 14  1  0  0  0  0
 19 18  1  0  0  0  0
 20 12  1  0  0  0  0
 20 21  1  0  0  0  0
 22 21  2  0  0  0  0
 23 24  1  0  0  0  0
 23 22  1  0  0  0  0
 24 20  2  0  0  0  0
 25 29  1  1  0  0  0
 25  3  1  0  0  0  0
 26 25  1  0  0  0  0
 27 26  2  0  0  0  0
 28 26  1  0  0  0  0
 29 30  1  0  0  0  0
 30 38  1  0  0  0  0
 31 32  1  0  0  0  0
 31 30  2  0  0  0  0
 32 33  1  0  0  0  0
 33 38  2  0  0  0  0
 33 34  1  0  0  0  0
 34 35  2  0  0  0  0
 35 36  1  0  0  0  0
 36 40  1  0  0  0  0
 37 36  2  0  0  0  0
 38 37  1  0  0  0  0
 39 32  1  0  0  0  0
 40 41  1  0  0  0  0
M  END
>  <minimizedAffinity>
-7.56833887

$$$$

 OpenBabel09122219043D

 41 46  0  0  1  0  0  0  0  0999 V2000
   12.4820   -3.2260    1.3400 O   0  0  0  0  0  0  0  0  0  0  0  0
   11.5210   -2.9440    0.6290 C   0  0  0  0  0  0  0  0  0  0  0  0
   11.6200   -2.0970   -0.4330 N   0  0  0  0  0  0  0  0  0  0  0  0
   12.5520   -1.7750   -0.6900 H   0  0  0  0  0  0  0  0  0  0  0  0
   10.2060   -3.5180    0.9710 C   0  0  0  0  0  0  0  0  0  0  0  0
    9.7200   -4.5720    0.1920 C   0  0  0  0  0  3  0  0  0  0  0  0
    8.4660   -5.1370    0.4460 C   0  0  0  0  0  3  0  0  0  0  0  0
    7.7110   -4.5880    1.4930 C   0  0  0  0  0  0  0  0  0  0  0  0
    8.1840   -3.5320    2.2680 C   0  0  0  0  0  0  0  0  0  0  0  0
    9.4410   -2.9710    2.0070 C   0  0  0  0  0  3  0  0  0  0  0  0
    7.2770   -3.1950    3.2350 N   0  0  0  0  0  0  0  0  0  0  0  0
    6.2860   -4.0610    3.1340 C   0  0  0  0  0  0  0  0  0  0  0  0
    6.4490   -4.8460    2.0030 N   0  0  0  0  0  0  0  0  0  0  0  0
    5.4460   -5.7180    1.4030 C   0  0  0  0  0  3  0  0  0  0  0  0
    5.5830   -5.8730   -0.1240 C   0  0  0  0  0  2  0  0  0  0  0  0
    4.4630   -6.7410   -0.6920 C   0  0  0  0  0  2  0  0  0  0  0  0
    4.3930   -8.0960    0.0080 C   0  0  0  0  0  2  0  0  0  0  0  0
    4.2490   -7.9440    1.5200 C   0  0  0  0  0  2  0  0  0  0  0  0
    5.3590   -7.0770    2.1120 C   0  0  0  0  0  2  0  0  0  0  0  0
    5.2070   -4.0960    4.1670 C   0  0  0  0  0  0  0  0  0  0  0  0
    5.2460   -4.2630    5.5740 C   0  0  0  0  0  3  0  0  0  0  0  0
    3.9410   -4.1820    6.0080 C   0  0  0  0  0  3  0  0  0  0  0  0
    3.1030   -3.9610    4.9640 O   0  0  0  0  0  0  0  0  0  0  0  0
    3.8800   -3.8900    3.8520 C   0  0  0  0  0  3  0  0  0  0  0  0
   10.5770   -1.4830   -1.2960 C   0  0  2  0  0  3  0  0  0  0  0  0
   11.1380   -0.9630   -2.6580 C   0  0  0  0  0  0  0  0  0  0  0  0
   10.2740   -0.5450   -3.4810 O   0  0  0  0  0  0  0  0  0  0  0  0
   12.3940   -1.0920   -2.7960 O   0  0  0  0  0  1  0  0  0  0  0  0
    9.7970   -0.3460   -0.6140 C   0  0  0  0  0  2  0  0  0  0  0  0
   10.5660    0.9270   -0.3720 C   0  0  0  0  0  0  0  0  0  0  0  0
   11.4220    1.5550   -1.2580 C   0  0  0  0  0  3  0  0  0  0  0  0
   11.9010    2.6890   -0.6670 N   0  0  0  0  0  0  0  0  0  0  0  0
   11.4250    2.7980    0.6170 C   0  0  0  0  0  0  0  0  0  0  0  0
   11.6670    3.7770    1.5900 C   0  0  0  0  0  3  0  0  0  0  0  0
   11.0210    3.6420    2.8210 C   0  0  0  0  0  3  0  0  0  0  0  0
   10.1660    2.5690    3.0540 C   0  0  0  0  0  0  0  0  0  0  0  0
    9.9280    1.6000    2.0790 C   0  0  0  0  0  3  0  0  0  0  0  0
   10.5740    1.7110    0.8290 C   0  0  0  0  0  0  0  0  0  0  0  0
   12.5090    3.3590   -1.1140 H   0  0  0  0  0  0  0  0  0  0  0  0
    9.5300    2.4350    4.2560 O   0  0  0  0  0  0  0  0  0  0  0  0
    9.5250    3.3040    4.6850 H   0  0  0  0  0  0  0  0  0  0  0  0
  2  5  1  0  0  0  0
  2  1  2  0  0  0  0
  3  2  1  0  0  0  0
  4  3  1  0  0  0  0
  5 10  1  0  0  0  0
  6  7  1  0  0  0  0
  6  5  2  0  0  0  0
  7  8  2  0  0  0  0
  8 13  1  0  0  0  0
  8  9  1  0  0  0  0
  9 11  1  0  0  0  0
 10  9  2  0  0  0  0
 12 11  2  0  0  0  0
 12 20  1  0  0  0  0
 13 12  1  0  0  0  0
 14 13  1  0  0  0  0
 14 19  1  0  0  0  0
 15 14  1  0  0  0  0
 16 15  1  0  0  0  0
 16 17  1  0  0  0  0
 17 18  1  0  0  0  0
 18 19  1  0  0  0  0
 20 21  1  0  0  0  0
 21 22  2  0  0  0  0
 23 22  1  0  0  0  0
 24 20  2  0  0  0  0
 24 23  1  0  0  0  0
 25 29  1  1  0  0  0
 25  3  1  0  0  0  0
 26 25  1  0  0  0  0
 27 26  2  0  0  0  0
 28 26  1  0  0  0  0
 29 30  1  0  0  0  0
 30 38  1  0  0  0  0
 31 32  1  0  0  0  0
 31 30  2  0  0  0  0
 32 33  1  0  0  0  0
 33 38  2  0  0  0  0
 33 34  1  0  0  0  0
 34 35  2  0  0  0  0
 35 36  1  0  0  0  0
 36 40  1  0  0  0  0
 37 36  2  0  0  0  0
 38 37  1  0  0  0  0
 39 32  1  0  0  0  0
 40 41  1  0  0  0  0
M  END
>  <minimizedAffinity>
-7.37744999

$$$$

 OpenBabel09122219043D

 41 46  0  0  1  0  0  0  0  0999 V2000
    9.9660   -1.6190    3.3560 O   0  0  0  0  0  0  0  0  0  0  0  0
    9.7870   -2.3740    2.4050 C   0  0  0  0  0  0  0  0  0  0  0  0
   10.6090   -2.3890    1.3180 N   0  0  0  0  0  0  0  0  0  0  0  0
   11.4520   -1.8180    1.3600 H   0  0  0  0  0  0  0  0  0  0  0  0
    8.6130   -3.2660    2.4300 C   0  0  0  0  0  0  0  0  0  0  0  0
    8.5330   -4.2840    1.4750 C   0  0  0  0  0  3  0  0  0  0  0  0
    7.4290   -5.1410    1.4280 C   0  0  0  0  0  3  0  0  0  0  0  0
    6.4010   -4.9220    2.3570 C   0  0  0  0  0  0  0  0  0  0  0  0
    6.4690   -3.9050    3.3060 C   0  0  0  0  0  0  0  0  0  0  0  0
    7.5780   -3.0490    3.3470 C   0  0  0  0  0  3  0  0  0  0  0  0
    5.3610   -3.9140    4.1080 N   0  0  0  0  0  0  0  0  0  0  0  0
    4.6400   -4.9540    3.7350 C   0  0  0  0  0  0  0  0  0  0  0  0
    5.1730   -5.5200    2.5880 N   0  0  0  0  0  0  0  0  0  0  0  0
    4.5250   -6.5010    1.7250 C   0  0  0  0  0  3  0  0  0  0  0  0
    4.8050   -6.2980    0.2240 C   0  0  0  0  0  2  0  0  0  0  0  0
    4.0420   -7.3160   -0.6220 C   0  0  0  0  0  2  0  0  0  0  0  0
    4.3390   -8.7470   -0.1800 C   0  0  0  0  0  2  0  0  0  0  0  0
    4.0520   -8.9510    1.3050 C   0  0  0  0  0  2  0  0  0  0  0  0
    4.8050   -7.9430    2.1720 C   0  0  0  0  0  2  0  0  0  0  0  0
    3.4460   -5.3690    4.5330 C   0  0  0  0  0  0  0  0  0  0  0  0
    3.1590   -6.5470    5.2660 C   0  0  0  0  0  3  0  0  0  0  0  0
    1.9130   -6.3610    5.8230 C   0  0  0  0  0  3  0  0  0  0  0  0
    1.4200   -5.1400    5.4930 O   0  0  0  0  0  0  0  0  0  0  0  0
    2.3650   -4.5360    4.7270 C   0  0  0  0  0  3  0  0  0  0  0  0
   10.4820   -3.0700    0.0030 C   0  0  2  0  0  3  0  0  0  0  0  0
   11.8260   -3.6830   -0.5020 C   0  0  0  0  0  0  0  0  0  0  0  0
   11.8830   -3.9300   -1.7410 O   0  0  0  0  0  0  0  0  0  0  0  0
   12.6740   -3.9240    0.4120 O   0  0  0  0  0  1  0  0  0  0  0  0
    9.8970   -2.1760   -1.1030 C   0  0  0  0  0  2  0  0  0  0  0  0
   10.5490   -0.8290   -1.2750 C   0  0  0  0  0  0  0  0  0  0  0  0
   11.4530   -0.4690   -2.2570 C   0  0  0  0  0  3  0  0  0  0  0  0
   11.7890    0.8430   -2.0760 N   0  0  0  0  0  0  0  0  0  0  0  0
   11.1700    1.3470   -0.9580 C   0  0  0  0  0  0  0  0  0  0  0  0
   11.2390    2.6240   -0.3850 C   0  0  0  0  0  3  0  0  0  0  0  0
   10.4720    2.8640    0.7580 C   0  0  0  0  0  3  0  0  0  0  0  0
    9.6700    1.8610    1.2920 C   0  0  0  0  0  0  0  0  0  0  0  0
    9.6040    0.5930    0.7140 C   0  0  0  0  0  3  0  0  0  0  0  0
   10.3740    0.3230   -0.4380 C   0  0  0  0  0  0  0  0  0  0  0  0
   12.3960    1.3720   -2.6840 H   0  0  0  0  0  0  0  0  0  0  0  0
    8.9170    2.0940    2.4080 O   0  0  0  0  0  0  0  0  0  0  0  0
    8.8070    3.0520    2.4950 H   0  0  0  0  0  0  0  0  0  0  0  0
  2  5  1  0  0  0  0
  2  1  2  0  0  0  0
  3  4  1  0  0  0  0
  3  2  1  0  0  0  0
  5 10  1  0  0  0  0
  6  5  2  0  0  0  0
  7  6  1  0  0  0  0
  7  8  2  0  0  0  0
  8 13  1  0  0  0  0
  8  9  1  0  0  0  0
  9 10  2  0  0  0  0
  9 11  1  0  0  0  0
 12 11  2  0  0  0  0
 12 20  1  0  0  0  0
 13 12  1  0  0  0  0
 14 19  1  0  0  0  0
 14 13  1  0  0  0  0
 15 14  1  0  0  0  0
 16 17  1  0  0  0  0
 16 15  1  0  0  0  0
 17 18  1  0  0  0  0
 18 19  1  0  0  0  0
 20 24  2  0  0  0  0
 20 21  1  0  0  0  0
 21 22  2  0  0  0  0
 23 22  1  0  0  0  0
 24 23  1  0  0  0  0
 25 29  1  6  0  0  0
 25  3  1  0  0  0  0
 26 25  1  0  0  0  0
 26 28  1  0  0  0  0
 27 26  2  0  0  0  0
 30 29  1  0  0  0  0
 30 38  1  0  0  0  0
 31 32  1  0  0  0  0
 31 30  2  0  0  0  0
 32 33  1  0  0  0  0
 33 38  2  0  0  0  0
 33 34  1  0  0  0  0
 34 35  2  0  0  0  0
 35 36  1  0  0  0  0
 36 40  1  0  0  0  0
 37 36  2  0  0  0  0
 38 37  1  0  0  0  0
 39 32  1  0  0  0  0
 40 41  1  0  0  0  0
M  END
>  <minimizedAffinity>
-7.26338243

$$$$

 OpenBabel09122219043D

 41 46  0  0  1  0  0  0  0  0999 V2000
    9.1380   -4.1640    1.4900 O   0  0  0  0  0  0  0  0  0  0  0  0
    8.4500   -3.4590    2.2230 C   0  0  0  0  0  0  0  0  0  0  0  0
    7.3300   -3.9240    2.8430 N   0  0  0  0  0  0  0  0  0  0  0  0
    7.1290   -4.9200    2.7640 H   0  0  0  0  0  0  0  0  0  0  0  0
    8.8360   -2.0470    2.4000 C   0  0  0  0  0  0  0  0  0  0  0  0
    8.8560   -1.2190    1.2730 C   0  0  0  0  0  3  0  0  0  0  0  0
    9.2450    0.1200    1.3710 C   0  0  0  0  0  3  0  0  0  0  0  0
    9.6350    0.5890    2.6350 C   0  0  0  0  0  0  0  0  0  0  0  0
    9.6260   -0.2310    3.7600 C   0  0  0  0  0  0  0  0  0  0  0  0
    9.2360   -1.5730    3.6540 C   0  0  0  0  0  3  0  0  0  0  0  0
   10.0230    0.4630    4.8700 N   0  0  0  0  0  0  0  0  0  0  0  0
   10.2050    1.7110    4.4830 C   0  0  0  0  0  0  0  0  0  0  0  0
   10.1050    1.8050    3.1040 N   0  0  0  0  0  0  0  0  0  0  0  0
   10.5050    2.9420    2.2820 C   0  0  0  0  0  3  0  0  0  0  0  0
   12.0300    3.1010    2.1330 C   0  0  0  0  0  2  0  0  0  0  0  0
   12.3770    4.3470    1.3200 C   0  0  0  0  0  2  0  0  0  0  0  0
   11.6740    4.3450   -0.0350 C   0  0  0  0  0  2  0  0  0  0  0  0
   10.1630    4.1960    0.1130 C   0  0  0  0  0  2  0  0  0  0  0  0
    9.7900    2.9560    0.9240 C   0  0  0  0  0  2  0  0  0  0  0  0
   10.4630    2.7840    5.4920 C   0  0  0  0  0  0  0  0  0  0  0  0
   11.6600    3.2650    6.0780 C   0  0  0  0  0  3  0  0  0  0  0  0
   11.2910    4.2870    6.9240 C   0  0  0  0  0  3  0  0  0  0  0  0
    9.9480    4.4770    6.8860 O   0  0  0  0  0  0  0  0  0  0  0  0
    9.4540    3.5740    6.0000 C   0  0  0  0  0  3  0  0  0  0  0  0
    6.2680   -3.2170    3.6070 C   0  0  2  0  0  3  0  0  0  0  0  0
    6.4220   -3.3670    5.1530 C   0  0  0  0  0  0  0  0  0  0  0  0
    5.4100   -3.0430    5.8380 O   0  0  0  0  0  1  0  0  0  0  0  0
    7.5760   -3.7330    5.5360 O   0  0  0  0  0  0  0  0  0  0  0  0
    4.8400   -3.6270    3.2080 C   0  0  0  0  0  2  0  0  0  0  0  0
    4.5270   -5.0980    3.3000 C   0  0  0  0  0  0  0  0  0  0  0  0
    4.1060   -5.7830    4.4250 C   0  0  0  0  0  3  0  0  0  0  0  0
    3.9120   -7.0910    4.0870 N   0  0  0  0  0  0  0  0  0  0  0  0
    4.2530   -7.3040    2.7730 C   0  0  0  0  0  0  0  0  0  0  0  0
    4.2350   -8.4810    2.0130 C   0  0  0  0  0  3  0  0  0  0  0  0
    4.6200   -8.3940    0.6730 C   0  0  0  0  0  3  0  0  0  0  0  0
    4.9990   -7.1730    0.1270 C   0  0  0  0  0  0  0  0  0  0  0  0
    5.0110   -6.0040    0.8890 C   0  0  0  0  0  3  0  0  0  0  0  0
    4.6330   -6.0660    2.2470 C   0  0  0  0  0  0  0  0  0  0  0  0
    3.5580   -7.8020    4.7100 H   0  0  0  0  0  0  0  0  0  0  0  0
    5.3730   -7.0840   -1.1850 O   0  0  0  0  0  0  0  0  0  0  0  0
    5.0140   -7.8550   -1.6460 H   0  0  0  0  0  0  0  0  0  0  0  0
  1  2  2  0  0  0  0
  2  5  1  0  0  0  0
  2  3  1  0  0  0  0
  3 25  1  0  0  0  0
  4  3  1  0  0  0  0
  5 10  1  0  0  0  0
  6  7  1  0  0  0  0
  6  5  2  0  0  0  0
  7  8  2  0  0  0  0
  8 13  1  0  0  0  0
  8  9  1  0  0  0  0
  9 11  1  0  0  0  0
 10  9  2  0  0  0  0
 12 11  2  0  0  0  0
 12 20  1  0  0  0  0
 13 12  1  0  0  0  0
 14 13  1  0  0  0  0
 15 14  1  0  0  0  0
 16 15  1  0  0  0  0
 17 18  1  0  0  0  0
 17 16  1  0  0  0  0
 18 19  1  0  0  0  0
 19 14  1  0  0  0  0
 20 24  2  0  0  0  0
 20 21  1  0  0  0  0
 21 22  2  0  0  0  0
 23 22  1  0  0  0  0
 24 23  1  0  0  0  0
 25 29  1  6  0  0  0
 25 26  1  0  0  0  0
 26 28  2  0  0  0  0
 26 27  1  0  0  0  0
 29 30  1  0  0  0  0
 30 31  2  0  0  0  0
 32 31  1  0  0  0  0
 32 39  1  0  0  0  0
 33 32  1  0  0  0  0
 34 33  2  0  0  0  0
 35 34  1  0  0  0  0
 36 35  2  0  0  0  0
 36 37  1  0  0  0  0
 37 38  2  0  0  0  0
 38 33  1  0  0  0  0
 38 30  1  0  0  0  0
 40 36  1  0  0  0  0
 41 40  1  0  0  0  0
M  END
>  <minimizedAffinity>
-7.09725237

$$$$
