
 OpenBabel09122222393D

 41 46  0  0  1  0  0  0  0  0999 V2000
    7.4730   -5.0260   -1.5620 O   0  0  0  0  0  0  0  0  0  0  0  0
    7.7490   -4.8680   -0.3760 C   0  0  0  0  0  0  0  0  0  0  0  0
    8.7350   -4.0250    0.0390 N   0  0  0  0  0  0  0  0  0  0  0  0
    9.1790   -3.4390   -0.6670 H   0  0  0  0  0  0  0  0  0  0  0  0
    7.0080   -5.6570    0.6260 C   0  0  0  0  0  0  0  0  0  0  0  0
    7.3180   -7.0130    0.7630 C   0  0  0  0  0  3  0  0  0  0  0  0
    6.6280   -7.8200    1.6730 C   0  0  0  0  0  3  0  0  0  0  0  0
    5.6020   -7.2220    2.4190 C   0  0  0  0  0  0  0  0  0  0  0  0
    5.2810   -5.8730    2.2820 C   0  0  0  0  0  0  0  0  0  0  0  0
    5.9760   -5.0710    1.3670 C   0  0  0  0  0  3  0  0  0  0  0  0
    4.2670   -5.5260    3.1320 N   0  0  0  0  0  0  0  0  0  0  0  0
    4.0000   -6.6010    3.8490 C   0  0  0  0  0  0  0  0  0  0  0  0
    4.7000   -7.6910    3.3600 N   0  0  0  0  0  0  0  0  0  0  0  0
    4.4720   -9.0910    3.7010 C   0  0  0  0  0  3  0  0  0  0  0  0
    4.5650   -9.3910    5.2100 C   0  0  0  0  0  2  0  0  0  0  0  0
    4.3850  -10.8830    5.4870 C   0  0  0  0  0  2  0  0  0  0  0  0
    3.0860  -11.4120    4.8850 C   0  0  0  0  0  2  0  0  0  0  0  0
    2.9980  -11.1220    3.3890 C   0  0  0  0  0  2  0  0  0  0  0  0
    3.1760   -9.6360    3.0860 C   0  0  0  0  0  2  0  0  0  0  0  0
    3.0630   -6.5170    5.0110 C   0  0  0  0  0  0  0  0  0  0  0  0
    1.8200   -7.1450    5.2740 C   0  0  0  0  0  3  0  0  0  0  0  0
    1.4240   -6.7120    6.5200 C   0  0  0  0  0  3  0  0  0  0  0  0
    2.3490   -5.8710    7.0490 O   0  0  0  0  0  0  0  0  0  0  0  0
    3.3500   -5.7730    6.1360 C   0  0  0  0  0  3  0  0  0  0  0  0
    9.3510   -3.8220    1.3760 C   0  0  2  0  0  3  0  0  0  0  0  0
    8.5120   -2.8840    2.3010 C   0  0  0  0  0  0  0  0  0  0  0  0
    8.1250   -3.3960    3.3910 O   0  0  0  0  0  1  0  0  0  0  0  0
    8.2620   -1.7410    1.8090 O   0  0  0  0  0  0  0  0  0  0  0  0
   10.7970   -3.3000    1.3200 C   0  0  0  0  0  2  0  0  0  0  0  0
   11.3450   -3.0260   -0.0560 C   0  0  0  0  0  0  0  0  0  0  0  0
   12.0770   -3.8970   -0.8410 C   0  0  0  0  0  3  0  0  0  0  0  0
   12.3650   -3.2770   -2.0230 N   0  0  0  0  0  0  0  0  0  0  0  0
   11.8900   -1.9870   -2.0170 C   0  0  0  0  0  0  0  0  0  0  0  0
   11.9750   -0.9890   -2.9960 C   0  0  0  0  0  3  0  0  0  0  0  0
   11.3710    0.2410   -2.7220 C   0  0  0  0  0  3  0  0  0  0  0  0
   10.7090    0.4470   -1.5160 C   0  0  0  0  0  0  0  0  0  0  0  0
   10.6260   -0.5540   -0.5480 C   0  0  0  0  0  3  0  0  0  0  0  0
   11.2330   -1.8030   -0.7980 C   0  0  0  0  0  0  0  0  0  0  0  0
   12.8500   -3.7070   -2.7970 H   0  0  0  0  0  0  0  0  0  0  0  0
   10.1140    1.6480   -1.2460 O   0  0  0  0  0  0  0  0  0  0  0  0
    9.9680    2.1010   -2.0900 H   0  0  0  0  0  0  0  0  0  0  0  0
  1  2  2  0  0  0  0
  2  3  1  0  0  0  0
  2  5  1  0  0  0  0
  3 25  1  0  0  0  0
  4  3  1  0  0  0  0
  5  6  2  0  0  0  0
  5 10  1  0  0  0  0
  6  7  1  0  0  0  0
  7  8  2  0  0  0  0
  8 13  1  0  0  0  0
  9  8  1  0  0  0  0
  9 11  1  0  0  0  0
 10  9  2  0  0  0  0
 11 12  2  0  0  0  0
 12 20  1  0  0  0  0
 13 14  1  0  0  0  0
 13 12  1  0  0  0  0
 14 15  1  0  0  0  0
 15 16  1  0  0  0  0
 17 16  1  0  0  0  0
 18 17  1  0  0  0  0
 19 18  1  0  0  0  0
 19 14  1  0  0  0  0
 20 21  1  0  0  0  0
 20 24  2  0  0  0  0
 21 22  2  0  0  0  0
 22 23  1  0  0  0  0
 24 23  1  0  0  0  0
 25 29  1  6  0  0  0
 25 26  1  0  0  0  0
 26 27  1  0  0  0  0
 28 26  2  0  0  0  0
 30 29  1  0  0  0  0
 31 30  2  0  0  0  0
 32 33  1  0  0  0  0
 32 31  1  0  0  0  0
 33 38  1  0  0  0  0
 34 35  1  0  0  0  0
 34 33  2  0  0  0  0
 35 36  2  0  0  0  0
 36 40  1  0  0  0  0
 36 37  1  0  0  0  0
 38 37  2  0  0  0  0
 38 30  1  0  0  0  0
 39 32  1  0  0  0  0
 41 40  1  0  0  0  0
M  END
>  <minimizedAffinity>
-8.33024597

$$$$
