
 OpenBabel09122222393D

 41 46  0  0  1  0  0  0  0  0999 V2000
    9.1380   -4.1640    1.4900 O   0  0  0  0  0  0  0  0  0  0  0  0
    8.4500   -3.4590    2.2230 C   0  0  0  0  0  0  0  0  0  0  0  0
    7.3300   -3.9240    2.8430 N   0  0  0  0  0  0  0  0  0  0  0  0
    7.1290   -4.9200    2.7640 H   0  0  0  0  0  0  0  0  0  0  0  0
    8.8360   -2.0470    2.4000 C   0  0  0  0  0  0  0  0  0  0  0  0
    8.8560   -1.2190    1.2730 C   0  0  0  0  0  3  0  0  0  0  0  0
    9.2450    0.1200    1.3710 C   0  0  0  0  0  3  0  0  0  0  0  0
    9.6350    0.5890    2.6350 C   0  0  0  0  0  0  0  0  0  0  0  0
    9.6260   -0.2310    3.7600 C   0  0  0  0  0  0  0  0  0  0  0  0
    9.2360   -1.5730    3.6540 C   0  0  0  0  0  3  0  0  0  0  0  0
   10.0230    0.4630    4.8700 N   0  0  0  0  0  0  0  0  0  0  0  0
   10.2050    1.7110    4.4830 C   0  0  0  0  0  0  0  0  0  0  0  0
   10.1050    1.8050    3.1040 N   0  0  0  0  0  0  0  0  0  0  0  0
   10.5050    2.9420    2.2820 C   0  0  0  0  0  3  0  0  0  0  0  0
   12.0300    3.1010    2.1330 C   0  0  0  0  0  2  0  0  0  0  0  0
   12.3770    4.3470    1.3200 C   0  0  0  0  0  2  0  0  0  0  0  0
   11.6740    4.3450   -0.0350 C   0  0  0  0  0  2  0  0  0  0  0  0
   10.1630    4.1960    0.1130 C   0  0  0  0  0  2  0  0  0  0  0  0
    9.7900    2.9560    0.9240 C   0  0  0  0  0  2  0  0  0  0  0  0
   10.4630    2.7840    5.4920 C   0  0  0  0  0  0  0  0  0  0  0  0
   11.6600    3.2650    6.0780 C   0  0  0  0  0  3  0  0  0  0  0  0
   11.2910    4.2870    6.9240 C   0  0  0  0  0  3  0  0  0  0  0  0
    9.9480    4.4770    6.8860 O   0  0  0  0  0  0  0  0  0  0  0  0
    9.4540    3.5740    6.0000 C   0  0  0  0  0  3  0  0  0  0  0  0
    6.2680   -3.2170    3.6070 C   0  0  2  0  0  3  0  0  0  0  0  0
    6.4220   -3.3670    5.1530 C   0  0  0  0  0  0  0  0  0  0  0  0
    5.4100   -3.0430    5.8380 O   0  0  0  0  0  1  0  0  0  0  0  0
    7.5760   -3.7330    5.5360 O   0  0  0  0  0  0  0  0  0  0  0  0
    4.8400   -3.6270    3.2080 C   0  0  0  0  0  2  0  0  0  0  0  0
    4.5270   -5.0980    3.3000 C   0  0  0  0  0  0  0  0  0  0  0  0
    4.1060   -5.7830    4.4250 C   0  0  0  0  0  3  0  0  0  0  0  0
    3.9120   -7.0910    4.0870 N   0  0  0  0  0  0  0  0  0  0  0  0
    4.2530   -7.3040    2.7730 C   0  0  0  0  0  0  0  0  0  0  0  0
    4.2350   -8.4810    2.0130 C   0  0  0  0  0  3  0  0  0  0  0  0
    4.6200   -8.3940    0.6730 C   0  0  0  0  0  3  0  0  0  0  0  0
    4.9990   -7.1730    0.1270 C   0  0  0  0  0  0  0  0  0  0  0  0
    5.0110   -6.0040    0.8890 C   0  0  0  0  0  3  0  0  0  0  0  0
    4.6330   -6.0660    2.2470 C   0  0  0  0  0  0  0  0  0  0  0  0
    3.5580   -7.8020    4.7100 H   0  0  0  0  0  0  0  0  0  0  0  0
    5.3730   -7.0840   -1.1850 O   0  0  0  0  0  0  0  0  0  0  0  0
    5.0140   -7.8550   -1.6460 H   0  0  0  0  0  0  0  0  0  0  0  0
  1  2  2  0  0  0  0
  2  5  1  0  0  0  0
  2  3  1  0  0  0  0
  3 25  1  0  0  0  0
  4  3  1  0  0  0  0
  5 10  1  0  0  0  0
  6  7  1  0  0  0  0
  6  5  2  0  0  0  0
  7  8  2  0  0  0  0
  8 13  1  0  0  0  0
  8  9  1  0  0  0  0
  9 11  1  0  0  0  0
 10  9  2  0  0  0  0
 12 11  2  0  0  0  0
 12 20  1  0  0  0  0
 13 12  1  0  0  0  0
 14 13  1  0  0  0  0
 15 14  1  0  0  0  0
 16 15  1  0  0  0  0
 17 18  1  0  0  0  0
 17 16  1  0  0  0  0
 18 19  1  0  0  0  0
 19 14  1  0  0  0  0
 20 24  2  0  0  0  0
 20 21  1  0  0  0  0
 21 22  2  0  0  0  0
 23 22  1  0  0  0  0
 24 23  1  0  0  0  0
 25 29  1  6  0  0  0
 25 26  1  0  0  0  0
 26 28  2  0  0  0  0
 26 27  1  0  0  0  0
 29 30  1  0  0  0  0
 30 31  2  0  0  0  0
 32 31  1  0  0  0  0
 32 39  1  0  0  0  0
 33 32  1  0  0  0  0
 34 33  2  0  0  0  0
 35 34  1  0  0  0  0
 36 35  2  0  0  0  0
 36 37  1  0  0  0  0
 37 38  2  0  0  0  0
 38 33  1  0  0  0  0
 38 30  1  0  0  0  0
 40 36  1  0  0  0  0
 41 40  1  0  0  0  0
M  END
>  <minimizedAffinity>
-7.09725237

$$$$
