
 OpenBabel09122222393D

 41 46  0  0  1  0  0  0  0  0999 V2000
   12.5360   -3.2020    1.2390 O   0  0  0  0  0  0  0  0  0  0  0  0
   11.5690   -2.8720    0.5580 C   0  0  0  0  0  0  0  0  0  0  0  0
   11.6910   -2.0980   -0.5570 N   0  0  0  0  0  0  0  0  0  0  0  0
   12.6340   -1.8800   -0.8760 H   0  0  0  0  0  0  0  0  0  0  0  0
   10.2270   -3.2990    0.9940 C   0  0  0  0  0  0  0  0  0  0  0  0
    9.6040   -2.5830    2.0210 C   0  0  0  0  0  3  0  0  0  0  0  0
    8.3450   -2.9590    2.5000 C   0  0  0  0  0  3  0  0  0  0  0  0
    7.7480   -4.0920    1.9270 C   0  0  0  0  0  0  0  0  0  0  0  0
    8.3660   -4.8160    0.9100 C   0  0  0  0  0  0  0  0  0  0  0  0
    9.6280   -4.4340    0.4360 C   0  0  0  0  0  3  0  0  0  0  0  0
    7.5750   -5.8570    0.5060 N   0  0  0  0  0  0  0  0  0  0  0  0
    6.4510   -5.7560    1.1880 C   0  0  0  0  0  0  0  0  0  0  0  0
    6.5640   -4.7720    2.1580 N   0  0  0  0  0  0  0  0  0  0  0  0
    5.6520   -4.5470    3.2740 C   0  0  0  0  0  3  0  0  0  0  0  0
    6.2690   -3.7410    4.4340 C   0  0  0  0  0  2  0  0  0  0  0  0
    5.2830   -3.6030    5.5930 C   0  0  0  0  0  2  0  0  0  0  0  0
    3.9570   -3.0060    5.1330 C   0  0  0  0  0  2  0  0  0  0  0  0
    3.3410   -3.8080    3.9890 C   0  0  0  0  0  2  0  0  0  0  0  0
    4.3090   -3.9610    2.8170 C   0  0  0  0  0  2  0  0  0  0  0  0
    5.2850   -6.6310    0.8550 C   0  0  0  0  0  0  0  0  0  0  0  0
    4.6770   -7.7050    1.5510 C   0  0  0  0  0  3  0  0  0  0  0  0
    3.6180   -8.1190    0.7730 C   0  0  0  0  0  3  0  0  0  0  0  0
    3.5250   -7.3600   -0.3490 O   0  0  0  0  0  0  0  0  0  0  0  0
    4.5280   -6.4470   -0.2830 C   0  0  0  0  0  3  0  0  0  0  0  0
   10.6660   -1.4370   -1.4070 C   0  0  2  0  0  3  0  0  0  0  0  0
   11.2470   -0.8800   -2.7450 C   0  0  0  0  0  0  0  0  0  0  0  0
   10.3940   -0.4670   -3.5820 O   0  0  0  0  0  0  0  0  0  0  0  0
   12.5080   -0.9770   -2.8540 O   0  0  0  0  0  1  0  0  0  0  0  0
    9.8980   -0.3130   -0.6920 C   0  0  0  0  0  2  0  0  0  0  0  0
   10.6760    0.9500   -0.4280 C   0  0  0  0  0  0  0  0  0  0  0  0
   11.5660    1.5660   -1.2870 C   0  0  0  0  0  3  0  0  0  0  0  0
   12.0420    2.6940   -0.6820 N   0  0  0  0  0  0  0  0  0  0  0  0
   11.5290    2.8100    0.5880 C   0  0  0  0  0  0  0  0  0  0  0  0
   11.7550    3.7860    1.5670 C   0  0  0  0  0  3  0  0  0  0  0  0
   11.0700    3.6600    2.7790 C   0  0  0  0  0  3  0  0  0  0  0  0
   10.1950    2.5980    2.9850 C   0  0  0  0  0  0  0  0  0  0  0  0
    9.9730    1.6320    2.0040 C   0  0  0  0  0  3  0  0  0  0  0  0
   10.6580    1.7340    0.7740 C   0  0  0  0  0  0  0  0  0  0  0  0
   12.6720    3.3560   -1.1100 H   0  0  0  0  0  0  0  0  0  0  0  0
    9.5210    2.4730    4.1670 O   0  0  0  0  0  0  0  0  0  0  0  0
    9.5140    3.3420    4.5960 H   0  0  0  0  0  0  0  0  0  0  0  0
  2  5  1  0  0  0  0
  2  1  2  0  0  0  0
  3  2  1  0  0  0  0
  4  3  1  0  0  0  0
  5  6  1  0  0  0  0
  6  7  2  0  0  0  0
  8 13  1  0  0  0  0
  8  7  1  0  0  0  0
  9  8  2  0  0  0  0
 10  9  1  0  0  0  0
 10  5  2  0  0  0  0
 11  9  1  0  0  0  0
 11 12  2  0  0  0  0
 12 13  1  0  0  0  0
 13 14  1  0  0  0  0
 14 15  1  0  0  0  0
 15 16  1  0  0  0  0
 17 16  1  0  0  0  0
 18 17  1  0  0  0  0
 19 14  1  0  0  0  0
 19 18  1  0  0  0  0
 20 12  1  0  0  0  0
 20 21  1  0  0  0  0
 22 21  2  0  0  0  0
 23 24  1  0  0  0  0
 23 22  1  0  0  0  0
 24 20  2  0  0  0  0
 25 29  1  1  0  0  0
 25  3  1  0  0  0  0
 26 25  1  0  0  0  0
 27 26  2  0  0  0  0
 28 26  1  0  0  0  0
 29 30  1  0  0  0  0
 30 38  1  0  0  0  0
 31 32  1  0  0  0  0
 31 30  2  0  0  0  0
 32 33  1  0  0  0  0
 33 38  2  0  0  0  0
 33 34  1  0  0  0  0
 34 35  2  0  0  0  0
 35 36  1  0  0  0  0
 36 40  1  0  0  0  0
 37 36  2  0  0  0  0
 38 37  1  0  0  0  0
 39 32  1  0  0  0  0
 40 41  1  0  0  0  0
M  END
>  <minimizedAffinity>
-7.56833887

$$$$
