
 OpenBabel09122222393D

 41 46  0  0  1  0  0  0  0  0999 V2000
    4.5540   -6.9840   -1.0470 O   0  0  0  0  0  0  0  0  0  0  0  0
    5.1750   -7.0150    0.0120 C   0  0  0  0  0  0  0  0  0  0  0  0
    4.8910   -7.9100    1.0000 N   0  0  0  0  0  0  0  0  0  0  0  0
    4.2050   -8.6340    0.7930 H   0  0  0  0  0  0  0  0  0  0  0  0
    6.2370   -6.0150    0.2300 C   0  0  0  0  0  0  0  0  0  0  0  0
    7.0610   -5.6790   -0.8480 C   0  0  0  0  0  3  0  0  0  0  0  0
    8.1060   -4.7620   -0.6950 C   0  0  0  0  0  3  0  0  0  0  0  0
    8.3070   -4.2170    0.5820 C   0  0  0  0  0  0  0  0  0  0  0  0
    7.4960   -4.5540    1.6630 C   0  0  0  0  0  0  0  0  0  0  0  0
    6.4510   -5.4740    1.5030 C   0  0  0  0  0  3  0  0  0  0  0  0
    7.8780   -3.8750    2.7870 N   0  0  0  0  0  0  0  0  0  0  0  0
    8.8540   -3.0670    2.4190 C   0  0  0  0  0  0  0  0  0  0  0  0
    9.2330   -3.3360    1.1140 N   0  0  0  0  0  0  0  0  0  0  0  0
   10.4370   -2.8540    0.4460 C   0  0  0  0  0  3  0  0  0  0  0  0
   11.3490   -3.9760   -0.0890 C   0  0  0  0  0  2  0  0  0  0  0  0
   12.6190   -3.4020   -0.7130 C   0  0  0  0  0  2  0  0  0  0  0  0
   12.2980   -2.3730   -1.7930 C   0  0  0  0  0  2  0  0  0  0  0  0
   11.4020   -1.2570   -1.2620 C   0  0  0  0  0  2  0  0  0  0  0  0
   10.1230   -1.8060   -0.6310 C   0  0  0  0  0  2  0  0  0  0  0  0
    9.3790   -2.0390    3.3690 C   0  0  0  0  0  0  0  0  0  0  0  0
   10.0720   -2.1510    4.6000 C   0  0  0  0  0  3  0  0  0  0  0  0
   10.3290   -0.8640    5.0170 C   0  0  0  0  0  3  0  0  0  0  0  0
    9.8550    0.0340    4.1160 O   0  0  0  0  0  0  0  0  0  0  0  0
    9.2970   -0.6870    3.1090 C   0  0  0  0  0  3  0  0  0  0  0  0
    5.3750   -8.0060    2.4020 C   0  0  2  0  0  3  0  0  0  0  0  0
    6.6600   -8.8810    2.5470 C   0  0  0  0  0  0  0  0  0  0  0  0
    6.4830  -10.0370    3.0300 O   0  0  0  0  0  1  0  0  0  0  0  0
    7.7390   -8.2940    2.2260 O   0  0  0  0  0  0  0  0  0  0  0  0
    4.3130   -8.5150    3.3910 C   0  0  0  0  0  2  0  0  0  0  0  0
    3.5010   -7.4540    4.0880 C   0  0  0  0  0  0  0  0  0  0  0  0
    3.7740   -6.0990    4.1270 C   0  0  0  0  0  3  0  0  0  0  0  0
    2.7880   -5.4800    4.8420 N   0  0  0  0  0  0  0  0  0  0  0  0
    1.8950   -6.4040    5.3280 C   0  0  0  0  0  0  0  0  0  0  0  0
    0.7540   -6.2270    6.1210 C   0  0  0  0  0  3  0  0  0  0  0  0
    0.0110   -7.3630    6.4520 C   0  0  0  0  0  3  0  0  0  0  0  0
    0.4030   -8.6180    5.9970 C   0  0  0  0  0  0  0  0  0  0  0  0
    1.5390   -8.7860    5.2050 C   0  0  0  0  0  3  0  0  0  0  0  0
    2.3100   -7.6540    4.8620 C   0  0  0  0  0  0  0  0  0  0  0  0
    2.7170   -4.4830    4.9830 H   0  0  0  0  0  0  0  0  0  0  0  0
   -0.3230   -9.7310    6.3160 O   0  0  0  0  0  0  0  0  0  0  0  0
   -1.2120   -9.4410    6.5680 H   0  0  0  0  0  0  0  0  0  0  0  0
  1  2  2  0  0  0  0
  2  5  1  0  0  0  0
  2  3  1  0  0  0  0
  3 25  1  0  0  0  0
  4  3  1  0  0  0  0
  5 10  1  0  0  0  0
  6  7  1  0  0  0  0
  6  5  2  0  0  0  0
  7  8  2  0  0  0  0
  8 13  1  0  0  0  0
  8  9  1  0  0  0  0
  9 11  1  0  0  0  0
 10  9  2  0  0  0  0
 12 11  2  0  0  0  0
 12 20  1  0  0  0  0
 13 12  1  0  0  0  0
 14 13  1  0  0  0  0
 15 14  1  0  0  0  0
 16 15  1  0  0  0  0
 17 18  1  0  0  0  0
 17 16  1  0  0  0  0
 18 19  1  0  0  0  0
 19 14  1  0  0  0  0
 20 21  1  0  0  0  0
 21 22  2  0  0  0  0
 23 22  1  0  0  0  0
 24 20  2  0  0  0  0
 24 23  1  0  0  0  0
 25 26  1  0  0  0  0
 25 29  1  1  0  0  0
 26 27  1  0  0  0  0
 28 26  2  0  0  0  0
 29 30  1  0  0  0  0
 30 31  2  0  0  0  0
 30 38  1  0  0  0  0
 31 32  1  0  0  0  0
 32 39  1  0  0  0  0
 32 33  1  0  0  0  0
 33 34  1  0  0  0  0
 34 35  2  0  0  0  0
 36 40  1  0  0  0  0
 36 35  1  0  0  0  0
 37 36  2  0  0  0  0
 38 37  1  0  0  0  0
 38 33  2  0  0  0  0
 40 41  1  0  0  0  0
M  END
>  <minimizedAffinity>
-8.69373608

$$$$
