
 OpenBabel09122222393D

 41 46  0  0  1  0  0  0  0  0999 V2000
    6.6430   -9.6120    2.5620 O   0  0  0  0  0  0  0  0  0  0  0  0
    6.3500   -8.4550    2.2710 C   0  0  0  0  0  0  0  0  0  0  0  0
    6.9990   -7.7600    1.2950 N   0  0  0  0  0  0  0  0  0  0  0  0
    7.6800   -8.2670    0.7320 H   0  0  0  0  0  0  0  0  0  0  0  0
    5.2820   -7.7900    3.0400 C   0  0  0  0  0  0  0  0  0  0  0  0
    4.2880   -8.5840    3.6170 C   0  0  0  0  0  3  0  0  0  0  0  0
    3.2310   -8.0090    4.3300 C   0  0  0  0  0  3  0  0  0  0  0  0
    3.1980   -6.6100    4.4200 C   0  0  0  0  0  0  0  0  0  0  0  0
    4.1800   -5.8110    3.8400 C   0  0  0  0  0  0  0  0  0  0  0  0
    5.2350   -6.3940    3.1260 C   0  0  0  0  0  3  0  0  0  0  0  0
    3.9380   -4.4870    4.0870 N   0  0  0  0  0  0  0  0  0  0  0  0
    2.8760   -4.4430    4.8690 C   0  0  0  0  0  0  0  0  0  0  0  0
    2.3180   -5.7050    4.9910 N   0  0  0  0  0  0  0  0  0  0  0  0
    1.0030   -6.0210    5.5380 C   0  0  0  0  0  3  0  0  0  0  0  0
   -0.1170   -6.0850    4.4810 C   0  0  0  0  0  2  0  0  0  0  0  0
   -1.4730   -6.3510    5.1310 C   0  0  0  0  0  2  0  0  0  0  0  0
   -1.4430   -7.6070    5.9980 C   0  0  0  0  0  2  0  0  0  0  0  0
   -0.3400   -7.5410    7.0510 C   0  0  0  0  0  2  0  0  0  0  0  0
    1.0280   -7.2740    6.4250 C   0  0  0  0  0  2  0  0  0  0  0  0
    2.4470   -3.1510    5.4860 C   0  0  0  0  0  0  0  0  0  0  0  0
    2.7100   -2.5720    6.7520 C   0  0  0  0  0  3  0  0  0  0  0  0
    2.0740   -1.3500    6.7580 C   0  0  0  0  0  3  0  0  0  0  0  0
    1.4490   -1.1330    5.5730 O   0  0  0  0  0  0  0  0  0  0  0  0
    1.6960   -2.2210    4.7990 C   0  0  0  0  0  3  0  0  0  0  0  0
    6.9390   -6.3250    0.9110 C   0  0  2  0  0  3  0  0  0  0  0  0
    6.1420   -6.0780   -0.4090 C   0  0  0  0  0  0  0  0  0  0  0  0
    4.9970   -6.6120   -0.4630 O   0  0  0  0  0  1  0  0  0  0  0  0
    6.7750   -5.4260   -1.2950 O   0  0  0  0  0  0  0  0  0  0  0  0
    8.3190   -5.6570    0.7900 C   0  0  0  0  0  2  0  0  0  0  0  0
    8.4090   -4.2370    1.2830 C   0  0  0  0  0  0  0  0  0  0  0  0
    7.8230   -3.7210    2.4250 C   0  0  0  0  0  3  0  0  0  0  0  0
    8.1610   -2.4020    2.5270 N   0  0  0  0  0  0  0  0  0  0  0  0
    8.9130   -2.0140    1.4440 C   0  0  0  0  0  0  0  0  0  0  0  0
    9.4550   -0.7630    1.1220 C   0  0  0  0  0  3  0  0  0  0  0  0
   10.2070   -0.6640   -0.0510 C   0  0  0  0  0  3  0  0  0  0  0  0
   10.4050   -1.7810   -0.8570 C   0  0  0  0  0  0  0  0  0  0  0  0
    9.8650   -3.0240   -0.5280 C   0  0  0  0  0  3  0  0  0  0  0  0
    9.0960   -3.1490    0.6490 C   0  0  0  0  0  0  0  0  0  0  0  0
    7.9060   -1.7990    3.2940 H   0  0  0  0  0  0  0  0  0  0  0  0
   11.1430   -1.6890   -2.0030 O   0  0  0  0  0  0  0  0  0  0  0  0
   11.7010   -0.9010   -1.9320 H   0  0  0  0  0  0  0  0  0  0  0  0
  2  1  2  0  0  0  0
  2  5  1  0  0  0  0
  3  2  1  0  0  0  0
  4  3  1  0  0  0  0
  5 10  2  0  0  0  0
  5  6  1  0  0  0  0
  6  7  2  0  0  0  0
  7  8  1  0  0  0  0
  8 13  1  0  0  0  0
  9 11  1  0  0  0  0
  9  8  2  0  0  0  0
 10  9  1  0  0  0  0
 11 12  2  0  0  0  0
 12 13  1  0  0  0  0
 12 20  1  0  0  0  0
 13 14  1  0  0  0  0
 14 19  1  0  0  0  0
 15 16  1  0  0  0  0
 15 14  1  0  0  0  0
 16 17  1  0  0  0  0
 17 18  1  0  0  0  0
 19 18  1  0  0  0  0
 20 21  1  0  0  0  0
 21 22  2  0  0  0  0
 23 22  1  0  0  0  0
 24 20  2  0  0  0  0
 24 23  1  0  0  0  0
 25 29  1  6  0  0  0
 25  3  1  0  0  0  0
 26 25  1  0  0  0  0
 27 26  1  0  0  0  0
 28 26  2  0  0  0  0
 29 30  1  0  0  0  0
 30 31  2  0  0  0  0
 31 32  1  0  0  0  0
 32 39  1  0  0  0  0
 33 32  1  0  0  0  0
 34 33  1  0  0  0  0
 35 34  2  0  0  0  0
 36 37  2  0  0  0  0
 36 35  1  0  0  0  0
 37 38  1  0  0  0  0
 38 30  1  0  0  0  0
 38 33  2  0  0  0  0
 40 41  1  0  0  0  0
 40 36  1  0  0  0  0
M  END
>  <minimizedAffinity>
-8.33831787

$$$$
