
 OpenBabel09122222393D

 50 53  0  0  1  0  0  0  0  0999 V2000
    4.7370   -3.2310    6.8470 C   0  0  1  0  0  3  0  0  0  0  0  0
    3.6160   -2.7150    7.3010 N   0  0  0  0  0  0  0  0  0  0  0  0
    3.1580   -2.8360    8.8340 S   0  0  0  0  0  0  0  0  0  0  0  0
    3.8880   -1.9240    9.6890 O   0  0  0  0  0  0  0  0  0  0  0  0
    1.7110   -2.8800    8.8840 O   0  0  0  0  0  0  0  0  0  0  0  0
    3.7290   -4.4650    9.2120 C   0  0  0  0  0  0  0  0  0  0  0  0
    2.8540   -5.4220    9.7150 C   0  0  0  0  0  3  0  0  0  0  0  0
    3.2560   -6.7520    9.6950 C   0  0  0  0  0  0  0  0  0  0  0  0
    4.5690   -7.0870    9.3480 C   0  0  0  0  0  3  0  0  0  0  0  0
    5.4410   -6.1120    8.8530 C   0  0  0  0  0  3  0  0  0  0  0  0
    4.9840   -4.8050    8.6930 C   0  0  0  0  0  0  0  0  0  0  0  0
    5.5890   -3.9470    7.7440 N   0  0  0  0  0  0  0  0  0  0  0  0
    2.9290   -2.3760    6.6370 H   0  0  0  0  0  0  0  0  0  0  0  0
    6.4690   -4.2910    7.3560 H   0  0  0  0  0  0  0  0  0  0  0  0
    4.2080   -4.9320    3.6580 N   0  0  0  0  0  0  0  0  0  0  0  0
    3.8480   -4.0700    4.6640 C   0  0  0  0  0  0  0  0  0  0  0  0
    2.7110   -3.9840    5.1350 O   0  0  0  0  0  0  0  0  0  0  0  0
    4.9610   -3.3550    5.3710 C   0  0  2  0  0  3  0  0  0  0  0  0
    6.1570   -3.2630    4.7660 C   0  0  2  0  0  3  0  0  0  0  0  0
    6.3820   -3.8900    3.4580 C   0  0  0  0  0  0  0  0  0  0  0  0
    7.5710   -3.7410    2.7370 C   0  0  0  0  0  3  0  0  0  0  0  0
    7.7730   -4.4810    1.5750 C   0  0  0  0  0  3  0  0  0  0  0  0
    6.7830   -5.3600    1.1780 C   0  0  0  0  0  3  0  0  0  0  0  0
    5.6210   -5.5200    1.8450 N   0  0  0  0  0  0  0  0  0  0  0  0
    5.4300   -4.7830    2.9620 C   0  0  0  0  0  0  0  0  0  0  0  0
    7.2680   -2.7040    5.3690 O   0  0  0  0  0  0  0  0  0  0  0  0
    7.0090   -1.8530    5.7760 H   0  0  0  0  0  0  0  0  0  0  0  0
    3.4050   -6.1450    3.4080 C   0  0  0  0  0  2  0  0  0  0  0  0
    3.8630   -7.3840    4.5930 C   0  0  0  0  0  1  0  0  0  0  0  0
    5.8530  -10.1170    3.3860 C   0  0  0  0  0  1  0  0  0  0  0  0
    4.6470   -9.4340    4.4640 C   0  0  0  0  0  2  0  0  0  0  0  0
    5.1500  -10.5280    5.7510 C   0  0  0  0  0  1  0  0  0  0  0  0
    2.2510   -7.7580    9.7930 N   0  0  0  0  0  0  0  0  0  0  0  0
    1.3290   -7.5390    9.4180 H   0  0  0  0  0  0  0  0  0  0  0  0
    2.7050   -9.3380    9.3750 S   0  0  0  0  0  0  0  0  0  0  0  0
    4.0920   -9.5120    9.7230 O   0  0  0  0  0  0  0  0  0  0  0  0
    1.6630  -10.1950    9.8860 O   0  0  0  0  0  0  0  0  0  0  0  0
    2.4900   -9.2980    7.6900 N   0  0  0  0  0  0  0  0  0  0  0  0
    3.2340   -8.7070    7.3160 H   0  0  0  0  0  0  0  0  0  0  0  0
    1.2080   -8.8700    7.1850 C   0  0  0  0  0  0  0  0  0  0  0  0
    1.1410   -7.3030    6.2950 C   0  0  0  0  0  3  0  0  0  0  0  0
   -0.4090   -6.7650    5.5090 C   0  0  0  0  0  3  0  0  0  0  0  0
   -1.8390   -7.8710    5.4610 C   0  0  0  0  0  0  0  0  0  0  0  0
   -1.7490   -9.4460    6.3100 C   0  0  0  0  0  3  0  0  0  0  0  0
   -0.2030   -9.9730    7.0970 C   0  0  0  0  0  3  0  0  0  0  0  0
   -3.1180   -7.5240    4.8170 C   0  0  0  0  0  0  0  0  0  0  0  0
   -3.9890   -6.7580    5.5310 N   0  0  0  0  0  0  0  0  0  0  0  0
   -3.3810   -7.9230    3.6920 O   0  0  0  0  0  0  0  0  0  0  0  0
   -4.8670   -6.5270    5.0810 H   0  0  0  0  0  0  0  0  0  0  0  0
   -3.8340   -6.4250    6.4670 H   0  0  0  0  0  0  0  0  0  0  0  0
  1  2  1  6  0  0  0
  1 12  1  0  0  0  0
  2  3  1  0  0  0  0
  3  5  2  0  0  0  0
  3  6  1  0  0  0  0
  3  4  2  0  0  0  0
  6  7  1  0  0  0  0
  8  7  2  0  0  0  0
  8 33  1  0  0  0  0
  9  8  1  0  0  0  0
 10  9  2  0  0  0  0
 11 10  1  0  0  0  0
 11  6  2  0  0  0  0
 12 11  1  0  0  0  0
 13  2  1  0  0  0  0
 14 12  1  0  0  0  0
 15 16  1  0  0  0  0
 16 17  2  0  0  0  0
 18 16  1  1  0  0  0
 18  1  1  0  0  0  0
 19 26  1  1  0  0  0
 19 18  1  0  0  0  0
 20 19  1  0  0  0  0
 21 20  2  0  0  0  0
 22 21  1  0  0  0  0
 23 22  2  0  0  0  0
 23 24  1  0  0  0  0
 24 25  2  0  0  0  0
 25 20  1  0  0  0  0
 25 15  1  0  0  0  0
 26 27  1  0  0  0  0
 28 15  1  0  0  0  0
 28 29  1  0  0  0  0
 30 31  1  0  0  0  0
 31 32  1  0  0  0  0
 34 33  1  0  0  0  0
 35 36  2  0  0  0  0
 35 33  1  0  0  0  0
 35 37  2  0  0  0  0
 38 35  1  0  0  0  0
 39 38  1  0  0  0  0
 40 38  1  0  0  0  0
 41 40  2  0  0  0  0
 42 41  1  0  0  0  0
 43 42  2  0  0  0  0
 43 44  1  0  0  0  0
 44 45  2  0  0  0  0
 45 40  1  0  0  0  0
 46 43  1  0  0  0  0
 46 47  1  0  0  0  0
 47 50  1  0  0  0  0
 48 46  2  0  0  0  0
 49 47  1  0  0  0  0
M  END
>  <minimizedAffinity>
-6.44263506

$$$$
