
 OpenBabel09122222393D

 50 53  0  0  1  0  0  0  0  0999 V2000
    4.8800   -3.4300    6.1380 C   0  0  1  0  0  3  0  0  0  0  0  0
    3.8550   -2.7200    6.5530 N   0  0  0  0  0  0  0  0  0  0  0  0
    3.4820   -2.5480    8.1040 S   0  0  0  0  0  0  0  0  0  0  0  0
    4.3610   -1.6100    8.7690 O   0  0  0  0  0  0  0  0  0  0  0  0
    2.0450   -2.4090    8.2230 O   0  0  0  0  0  0  0  0  0  0  0  0
    3.8890   -4.1560    8.7120 C   0  0  0  0  0  0  0  0  0  0  0  0
    2.9450   -4.9120    9.4000 C   0  0  0  0  0  3  0  0  0  0  0  0
    3.1940   -6.2680    9.5740 C   0  0  0  0  0  0  0  0  0  0  0  0
    4.4360   -6.8080    9.2290 C   0  0  0  0  0  3  0  0  0  0  0  0
    5.3800   -6.0330    8.5460 C   0  0  0  0  0  3  0  0  0  0  0  0
    5.0630   -4.7200    8.1990 C   0  0  0  0  0  0  0  0  0  0  0  0
    5.7010   -4.0970    7.1000 N   0  0  0  0  0  0  0  0  0  0  0  0
    3.1690   -2.4060    5.8730 H   0  0  0  0  0  0  0  0  0  0  0  0
    6.5110   -4.6000    6.7340 H   0  0  0  0  0  0  0  0  0  0  0  0
    4.1630   -5.6670    3.3420 N   0  0  0  0  0  0  0  0  0  0  0  0
    3.8540   -4.6500    4.2090 C   0  0  0  0  0  0  0  0  0  0  0  0
    2.7540   -4.5010    4.7460 O   0  0  0  0  0  0  0  0  0  0  0  0
    4.9960   -3.8060    4.6930 C   0  0  2  0  0  3  0  0  0  0  0  0
    6.1400   -3.8020    3.9890 C   0  0  2  0  0  3  0  0  0  0  0  0
    6.2860   -4.6430    2.7950 C   0  0  0  0  0  0  0  0  0  0  0  0
    7.4130   -4.6040    1.9680 C   0  0  0  0  0  3  0  0  0  0  0  0
    7.5480   -5.5310    0.9380 C   0  0  0  0  0  3  0  0  0  0  0  0
    6.5570   -6.4810    0.7780 C   0  0  0  0  0  3  0  0  0  0  0  0
    5.4530   -6.5400    1.5520 N   0  0  0  0  0  0  0  0  0  0  0  0
    5.3250   -5.6240    2.5360 C   0  0  0  0  0  0  0  0  0  0  0  0
    7.2770   -3.1300    4.3980 O   0  0  0  0  0  0  0  0  0  0  0  0
    7.0250   -2.2260    4.6710 H   0  0  0  0  0  0  0  0  0  0  0  0
    3.3780   -6.9180    3.3680 C   0  0  0  0  0  2  0  0  0  0  0  0
    4.1970   -8.0800    4.4300 C   0  0  0  0  0  1  0  0  0  0  0  0
    3.8940  -10.1980    7.3120 C   0  0  0  0  0  1  0  0  0  0  0  0
    3.5460   -9.7980    5.6390 C   0  0  0  0  0  2  0  0  0  0  0  0
    1.9530  -10.5390    5.7720 C   0  0  0  0  0  1  0  0  0  0  0  0
    2.0900   -7.1180    9.8760 N   0  0  0  0  0  0  0  0  0  0  0  0
    1.4550   -6.8190   10.6160 H   0  0  0  0  0  0  0  0  0  0  0  0
    1.2210   -7.7420    8.5590 S   0  0  0  0  0  0  0  0  0  0  0  0
    1.8640   -7.3010    7.3490 O   0  0  0  0  0  0  0  0  0  0  0  0
    1.0010   -9.1360    8.8590 O   0  0  0  0  0  0  0  0  0  0  0  0
   -0.2820   -6.9780    8.7760 N   0  0  0  0  0  0  0  0  0  0  0  0
   -0.2930   -6.6280    9.7350 H   0  0  0  0  0  0  0  0  0  0  0  0
   -1.4720   -7.7470    8.5080 C   0  0  0  0  0  0  0  0  0  0  0  0
   -2.2520   -8.5900    9.8980 C   0  0  0  0  0  3  0  0  0  0  0  0
   -3.8320   -9.4630    9.6670 C   0  0  0  0  0  3  0  0  0  0  0  0
   -4.7180   -9.3420    8.0960 C   0  0  0  0  0  0  0  0  0  0  0  0
   -3.9570   -8.4620    6.7330 C   0  0  0  0  0  3  0  0  0  0  0  0
   -2.3790   -7.6010    6.9690 C   0  0  0  0  0  3  0  0  0  0  0  0
   -6.0170   -9.9910    7.8390 C   0  0  0  0  0  0  0  0  0  0  0  0
   -6.8490  -10.1660    8.9030 N   0  0  0  0  0  0  0  0  0  0  0  0
   -6.3190  -10.3630    6.7140 O   0  0  0  0  0  0  0  0  0  0  0  0
   -7.7370  -10.6150    8.7170 H   0  0  0  0  0  0  0  0  0  0  0  0
   -6.6400   -9.9030    9.8510 H   0  0  0  0  0  0  0  0  0  0  0  0
  1  2  1  1  0  0  0
  1 12  1  0  0  0  0
  2  3  1  0  0  0  0
  3  5  2  0  0  0  0
  3  6  1  0  0  0  0
  3  4  2  0  0  0  0
  6  7  1  0  0  0  0
  7  8  2  0  0  0  0
  8 33  1  0  0  0  0
  9  8  1  0  0  0  0
 10  9  2  0  0  0  0
 11 10  1  0  0  0  0
 11  6  2  0  0  0  0
 12 11  1  0  0  0  0
 13  2  1  0  0  0  0
 14 12  1  0  0  0  0
 15 28  1  0  0  0  0
 15 16  1  0  0  0  0
 16 17  2  0  0  0  0
 18 16  1  1  0  0  0
 18  1  1  0  0  0  0
 19 26  1  1  0  0  0
 19 18  1  0  0  0  0
 20 19  1  0  0  0  0
 21 20  2  0  0  0  0
 22 21  1  0  0  0  0
 23 22  2  0  0  0  0
 23 24  1  0  0  0  0
 24 25  2  0  0  0  0
 25 20  1  0  0  0  0
 25 15  1  0  0  0  0
 26 27  1  0  0  0  0
 28 29  1  0  0  0  0
 31 32  1  0  0  0  0
 31 30  1  0  0  0  0
 33 34  1  0  0  0  0
 35 38  1  0  0  0  0
 35 37  2  0  0  0  0
 35 33  1  0  0  0  0
 36 35  2  0  0  0  0
 38 39  1  0  0  0  0
 40 38  1  0  0  0  0
 40 41  1  0  0  0  0
 42 41  2  0  0  0  0
 43 42  1  0  0  0  0
 44 45  1  0  0  0  0
 44 43  2  0  0  0  0
 45 40  2  0  0  0  0
 46 43  1  0  0  0  0
 46 47  1  0  0  0  0
 47 50  1  0  0  0  0
 48 46  2  0  0  0  0
 49 47  1  0  0  0  0
M  END
>  <minimizedAffinity>
-7.61017323

$$$$
