
 OpenBabel09122222393D

 50 53  0  0  1  0  0  0  0  0999 V2000
    3.4420   -5.9340    9.2330 C   0  0  1  0  0  3  0  0  0  0  0  0
    4.3350   -6.0310    8.2740 N   0  0  0  0  0  0  0  0  0  0  0  0
    5.2730   -4.8090    7.8260 S   0  0  0  0  0  0  0  0  0  0  0  0
    6.3520   -4.5850    8.7650 O   0  0  0  0  0  0  0  0  0  0  0  0
    5.5540   -4.9340    6.4100 O   0  0  0  0  0  0  0  0  0  0  0  0
    4.1470   -3.4590    8.0040 C   0  0  0  0  0  0  0  0  0  0  0  0
    3.8950   -2.6030    6.9360 C   0  0  0  0  0  3  0  0  0  0  0  0
    2.7860   -1.7700    7.0140 C   0  0  0  0  0  0  0  0  0  0  0  0
    2.0590   -1.6690    8.2040 C   0  0  0  0  0  3  0  0  0  0  0  0
    2.3300   -2.5300    9.2730 C   0  0  0  0  0  3  0  0  0  0  0  0
    3.3220   -3.5010    9.1340 C   0  0  0  0  0  0  0  0  0  0  0  0
    3.2780   -4.6850    9.9080 N   0  0  0  0  0  0  0  0  0  0  0  0
    4.3230   -6.8500    7.6740 H   0  0  0  0  0  0  0  0  0  0  0  0
    2.6040   -4.6680   10.6760 H   0  0  0  0  0  0  0  0  0  0  0  0
    2.0320   -9.1960    8.3940 N   0  0  0  0  0  0  0  0  0  0  0  0
    2.8980   -8.3700    9.0650 C   0  0  0  0  0  0  0  0  0  0  0  0
    4.0930   -8.6130    9.2480 O   0  0  0  0  0  0  0  0  0  0  0  0
    2.3980   -6.9950    9.3970 C   0  0  2  0  0  3  0  0  0  0  0  0
    1.0730   -6.7740    9.4030 C   0  0  2  0  0  3  0  0  0  0  0  0
    0.1350   -7.8450    9.0470 C   0  0  0  0  0  0  0  0  0  0  0  0
   -1.2530   -7.7010    9.1340 C   0  0  0  0  0  3  0  0  0  0  0  0
   -2.0850   -8.7050    8.6430 C   0  0  0  0  0  3  0  0  0  0  0  0
   -1.5000   -9.8150    8.0640 C   0  0  0  0  0  3  0  0  0  0  0  0
   -0.1650   -9.9880    7.9730 N   0  0  0  0  0  0  0  0  0  0  0  0
    0.6310   -9.0160    8.4700 C   0  0  0  0  0  0  0  0  0  0  0  0
    0.5170   -5.5250    9.6080 O   0  0  0  0  0  0  0  0  0  0  0  0
    0.9490   -5.1120   10.3810 H   0  0  0  0  0  0  0  0  0  0  0  0
    2.5570  -10.1830    7.4280 C   0  0  0  0  0  2  0  0  0  0  0  0
    2.1240   -9.6600    5.7890 C   0  0  0  0  0  1  0  0  0  0  0  0
   -1.1080   -9.0750    4.3420 C   0  0  0  0  0  1  0  0  0  0  0  0
    0.4560   -8.5240    4.9170 C   0  0  0  0  0  2  0  0  0  0  0  0
   -0.2510   -6.9930    5.4300 C   0  0  0  0  0  1  0  0  0  0  0  0
    2.2740   -1.2210    5.8010 N   0  0  0  0  0  0  0  0  0  0  0  0
    2.7280   -0.3850    5.4350 H   0  0  0  0  0  0  0  0  0  0  0  0
    1.9350   -2.3140    4.5490 S   0  0  0  0  0  0  0  0  0  0  0  0
    1.3410   -3.4900    5.1300 O   0  0  0  0  0  0  0  0  0  0  0  0
    1.2820   -1.5420    3.5200 O   0  0  0  0  0  0  0  0  0  0  0  0
    3.5000   -2.6320    3.9690 N   0  0  0  0  0  0  0  0  0  0  0  0
    3.6640   -1.9780    3.2030 H   0  0  0  0  0  0  0  0  0  0  0  0
    3.8020   -3.9790    3.5520 C   0  0  0  0  0  0  0  0  0  0  0  0
    5.1140   -4.2020    2.3350 C   0  0  0  0  0  3  0  0  0  0  0  0
    5.6470   -5.8780    1.8640 C   0  0  0  0  0  3  0  0  0  0  0  0
    4.9960   -7.3200    2.7370 C   0  0  0  0  0  0  0  0  0  0  0  0
    3.7240   -7.0860    3.9770 C   0  0  0  0  0  3  0  0  0  0  0  0
    3.1930   -5.4150    4.4370 C   0  0  0  0  0  3  0  0  0  0  0  0
    5.4000   -8.7060    2.4390 C   0  0  0  0  0  0  0  0  0  0  0  0
    4.7340   -9.3500    1.4400 N   0  0  0  0  0  0  0  0  0  0  0  0
    6.2900   -9.2500    3.0770 O   0  0  0  0  0  0  0  0  0  0  0  0
    5.0170  -10.3030    1.2450 H   0  0  0  0  0  0  0  0  0  0  0  0
    3.9790   -8.9600    0.9030 H   0  0  0  0  0  0  0  0  0  0  0  0
  1  2  1  6  0  0  0
  1 18  1  0  0  0  0
  1 12  1  0  0  0  0
  3  6  1  0  0  0  0
  3  2  1  0  0  0  0
  3  4  2  0  0  0  0
  5  3  2  0  0  0  0
  6 11  1  0  0  0  0
  7  8  1  0  0  0  0
  7  6  2  0  0  0  0
  8  9  2  0  0  0  0
  9 10  1  0  0  0  0
 11 10  2  0  0  0  0
 11 12  1  0  0  0  0
 12 14  1  0  0  0  0
 13  2  1  0  0  0  0
 15 25  1  0  0  0  0
 15 16  1  0  0  0  0
 16 17  2  0  0  0  0
 18 16  1  6  0  0  0
 18 19  1  0  0  0  0
 19 26  1  6  0  0  0
 20 21  1  0  0  0  0
 20 19  1  0  0  0  0
 22 21  2  0  0  0  0
 23 22  1  0  0  0  0
 24 23  2  0  0  0  0
 24 25  1  0  0  0  0
 25 20  2  0  0  0  0
 26 27  1  0  0  0  0
 28 15  1  0  0  0  0
 29 28  1  0  0  0  0
 30 31  1  0  0  0  0
 31 32  1  0  0  0  0
 33  8  1  0  0  0  0
 34 33  1  0  0  0  0
 35 36  2  0  0  0  0
 35 33  1  0  0  0  0
 37 35  2  0  0  0  0
 38 35  1  0  0  0  0
 39 38  1  0  0  0  0
 40 38  1  0  0  0  0
 40 45  1  0  0  0  0
 41 40  2  0  0  0  0
 42 41  1  0  0  0  0
 42 43  2  0  0  0  0
 43 44  1  0  0  0  0
 44 45  2  0  0  0  0
 46 43  1  0  0  0  0
 46 48  2  0  0  0  0
 47 46  1  0  0  0  0
 49 47  1  0  0  0  0
 50 47  1  0  0  0  0
M  END
>  <minimizedAffinity>
-7.40478086

$$$$
