
 OpenBabel09122222393D

 50 53  0  0  1  0  0  0  0  0999 V2000
    4.3100   -6.1100    8.3780 C   0  0  1  0  0  3  0  0  0  0  0  0
    4.5380   -7.2620    8.9680 N   0  0  0  0  0  0  0  0  0  0  0  0
    3.8740   -8.6380    8.4800 S   0  0  0  0  0  0  0  0  0  0  0  0
    4.5160   -9.1550    7.2900 O   0  0  0  0  0  0  0  0  0  0  0  0
    3.6800   -9.4950    9.6330 O   0  0  0  0  0  0  0  0  0  0  0  0
    2.2740   -8.0680    7.9950 C   0  0  0  0  0  0  0  0  0  0  0  0
    1.1260   -8.6420    8.5340 C   0  0  0  0  0  3  0  0  0  0  0  0
   -0.0780   -7.9650    8.3780 C   0  0  0  0  0  0  0  0  0  0  0  0
   -0.1550   -6.8410    7.5490 C   0  0  0  0  0  3  0  0  0  0  0  0
    1.0070   -6.2820    7.0070 C   0  0  0  0  0  3  0  0  0  0  0  0
    2.2450   -6.8470    7.3130 C   0  0  0  0  0  0  0  0  0  0  0  0
    3.4220   -6.0620    7.2600 N   0  0  0  0  0  0  0  0  0  0  0  0
    5.0130   -7.2680    9.8650 H   0  0  0  0  0  0  0  0  0  0  0  0
    3.3090   -5.1540    6.8070 H   0  0  0  0  0  0  0  0  0  0  0  0
    3.6420   -2.6430    9.3120 N   0  0  0  0  0  0  0  0  0  0  0  0
    3.5280   -4.0010    9.4730 C   0  0  0  0  0  0  0  0  0  0  0  0
    2.4790   -4.5830    9.7630 O   0  0  0  0  0  0  0  0  0  0  0  0
    4.7030   -4.8320    9.0530 C   0  0  2  0  0  3  0  0  0  0  0  0
    5.9040   -4.2400    8.9360 C   0  0  2  0  0  3  0  0  0  0  0  0
    6.0520   -2.7980    9.1700 C   0  0  0  0  0  0  0  0  0  0  0  0
    7.2900   -2.1490    9.1620 C   0  0  0  0  0  3  0  0  0  0  0  0
    7.3430   -0.7600    9.2460 C   0  0  0  0  0  3  0  0  0  0  0  0
    6.1530   -0.0620    9.3190 C   0  0  0  0  0  3  0  0  0  0  0  0
    4.9430   -0.6580    9.3380 N   0  0  0  0  0  0  0  0  0  0  0  0
    4.9050   -2.0080    9.2750 C   0  0  0  0  0  0  0  0  0  0  0  0
    7.0280   -4.8960    8.4710 O   0  0  0  0  0  0  0  0  0  0  0  0
    7.1000   -5.7570    8.9280 H   0  0  0  0  0  0  0  0  0  0  0  0
    2.4460   -1.8380    8.9890 C   0  0  0  0  0  2  0  0  0  0  0  0
    2.3220   -1.6870    7.2260 C   0  0  0  0  0  1  0  0  0  0  0  0
    4.8150   -3.4710    5.3570 C   0  0  0  0  0  1  0  0  0  0  0  0
    3.2320   -2.7280    5.5160 C   0  0  0  0  0  2  0  0  0  0  0  0
    2.5370   -3.9320    4.4330 C   0  0  0  0  0  1  0  0  0  0  0  0
   -1.1500   -8.2930    9.2600 N   0  0  0  0  0  0  0  0  0  0  0  0
   -1.1240   -7.8950   10.1980 H   0  0  0  0  0  0  0  0  0  0  0  0
   -2.7190   -8.2120    8.6200 S   0  0  0  0  0  0  0  0  0  0  0  0
   -3.6530   -8.2930    9.7140 O   0  0  0  0  0  0  0  0  0  0  0  0
   -2.7080   -7.1110    7.6880 O   0  0  0  0  0  0  0  0  0  0  0  0
   -2.7520   -9.6230    7.6730 N   0  0  0  0  0  0  0  0  0  0  0  0
   -2.6280  -10.4070    8.3160 H   0  0  0  0  0  0  0  0  0  0  0  0
   -1.8180   -9.7200    6.5780 C   0  0  0  0  0  0  0  0  0  0  0  0
   -2.1120   -8.6790    5.1350 C   0  0  0  0  0  3  0  0  0  0  0  0
   -0.9030   -8.6420    3.7750 C   0  0  0  0  0  3  0  0  0  0  0  0
    0.6780   -9.5040    3.9370 C   0  0  0  0  0  0  0  0  0  0  0  0
    0.9810  -10.5000    5.3950 C   0  0  0  0  0  3  0  0  0  0  0  0
   -0.2310  -10.5380    6.7430 C   0  0  0  0  0  3  0  0  0  0  0  0
    1.7220   -9.4960    2.8960 C   0  0  0  0  0  0  0  0  0  0  0  0
    1.5360  -10.3060    1.8170 N   0  0  0  0  0  0  0  0  0  0  0  0
    2.7170   -8.7950    3.0140 O   0  0  0  0  0  0  0  0  0  0  0  0
    2.2590  -10.2960    1.1100 H   0  0  0  0  0  0  0  0  0  0  0  0
    0.7500  -10.9200    1.6840 H   0  0  0  0  0  0  0  0  0  0  0  0
  1 12  1  1  0  0  0
  1  2  1  0  0  0  0
  1 18  1  0  0  0  0
  2 13  1  0  0  0  0
  3  2  1  0  0  0  0
  3  5  2  0  0  0  0
  4  3  2  0  0  0  0
  6  3  1  0  0  0  0
  6  7  1  0  0  0  0
  8  7  2  0  0  0  0
  8 33  1  0  0  0  0
  9  8  1  0  0  0  0
 10 11  1  0  0  0  0
 10  9  2  0  0  0  0
 11  6  2  0  0  0  0
 12 11  1  0  0  0  0
 14 12  1  0  0  0  0
 15 16  1  0  0  0  0
 16 17  2  0  0  0  0
 18 16  1  6  0  0  0
 19 26  1  6  0  0  0
 19 18  1  0  0  0  0
 19 20  1  0  0  0  0
 20 25  1  0  0  0  0
 21 20  2  0  0  0  0
 21 22  1  0  0  0  0
 22 23  2  0  0  0  0
 23 24  1  0  0  0  0
 25 15  1  0  0  0  0
 25 24  2  0  0  0  0
 26 27  1  0  0  0  0
 28 15  1  0  0  0  0
 29 28  1  0  0  0  0
 30 31  1  0  0  0  0
 32 31  1  0  0  0  0
 33 34  1  0  0  0  0
 35 33  1  0  0  0  0
 35 36  2  0  0  0  0
 37 35  2  0  0  0  0
 38 39  1  0  0  0  0
 38 35  1  0  0  0  0
 40 45  1  0  0  0  0
 40 38  1  0  0  0  0
 41 40  2  0  0  0  0
 42 43  2  0  0  0  0
 42 41  1  0  0  0  0
 43 44  1  0  0  0  0
 44 45  2  0  0  0  0
 46 48  2  0  0  0  0
 46 43  1  0  0  0  0
 47 46  1  0  0  0  0
 49 47  1  0  0  0  0
 50 47  1  0  0  0  0
M  END
>  <minimizedAffinity>
-6.07665968

$$$$
