
 OpenBabel09122222393D

 50 53  0  0  1  0  0  0  0  0999 V2000
    4.1710   -3.8520    4.5950 C   0  0  1  0  0  3  0  0  0  0  0  0
    5.0370   -4.6910    4.0720 N   0  0  0  0  0  0  0  0  0  0  0  0
    4.6020   -6.0520    3.3430 S   0  0  0  0  0  0  0  0  0  0  0  0
    4.0800   -5.8100    2.0150 O   0  0  0  0  0  0  0  0  0  0  0  0
    5.6410   -7.0410    3.5490 O   0  0  0  0  0  0  0  0  0  0  0  0
    3.2350   -6.5340    4.3540 C   0  0  0  0  0  0  0  0  0  0  0  0
    3.2050   -7.7910    4.9510 C   0  0  0  0  0  3  0  0  0  0  0  0
    2.2920   -8.0070    5.9750 C   0  0  0  0  0  0  0  0  0  0  0  0
    1.3160   -7.0480    6.2650 C   0  0  0  0  0  3  0  0  0  0  0  0
    1.3520   -5.7920    5.6500 C   0  0  0  0  0  3  0  0  0  0  0  0
    2.3820   -5.5000    4.7550 C   0  0  0  0  0  0  0  0  0  0  0  0
    2.7760   -4.1590    4.5330 N   0  0  0  0  0  0  0  0  0  0  0  0
    6.0230   -4.5700    4.2790 H   0  0  0  0  0  0  0  0  0  0  0  0
    2.1390   -3.4570    4.9130 H   0  0  0  0  0  0  0  0  0  0  0  0
    6.4110   -2.6120    7.2000 N   0  0  0  0  0  0  0  0  0  0  0  0
    6.0850   -2.9050    5.9000 C   0  0  0  0  0  0  0  0  0  0  0  0
    6.8510   -3.4330    5.0900 O   0  0  0  0  0  0  0  0  0  0  0  0
    4.6400   -2.7710    5.5200 C   0  0  2  0  0  3  0  0  0  0  0  0
    3.8370   -2.0180    6.2910 C   0  0  2  0  0  3  0  0  0  0  0  0
    4.3530   -1.3780    7.5060 C   0  0  0  0  0  0  0  0  0  0  0  0
    3.5920   -0.5040    8.2890 C   0  0  0  0  0  3  0  0  0  0  0  0
    4.0950   -0.0480    9.5050 C   0  0  0  0  0  3  0  0  0  0  0  0
    5.3390   -0.4950    9.9080 C   0  0  0  0  0  3  0  0  0  0  0  0
    6.1020   -1.3300    9.1720 N   0  0  0  0  0  0  0  0  0  0  0  0
    5.6110   -1.7500    7.9860 C   0  0  0  0  0  0  0  0  0  0  0  0
    2.4760   -1.9030    6.0770 O   0  0  0  0  0  0  0  0  0  0  0  0
    2.3200   -1.7310    5.1280 H   0  0  0  0  0  0  0  0  0  0  0  0
    7.5120   -3.3410    7.8630 C   0  0  0  0  0  2  0  0  0  0  0  0
    6.8140   -4.5890    8.9140 C   0  0  0  0  0  1  0  0  0  0  0  0
    3.2280   -4.5170    9.0660 C   0  0  0  0  0  1  0  0  0  0  0  0
    4.7750   -5.3050    9.3230 C   0  0  0  0  0  2  0  0  0  0  0  0
    4.0510   -6.8780    8.9980 C   0  0  0  0  0  1  0  0  0  0  0  0
    2.5270   -9.0960    6.8650 N   0  0  0  0  0  0  0  0  0  0  0  0
    3.2500   -8.9760    7.5740 H   0  0  0  0  0  0  0  0  0  0  0  0
    1.1610   -9.8530    7.5270 S   0  0  0  0  0  0  0  0  0  0  0  0
    0.4700  -10.5380    6.4650 O   0  0  0  0  0  0  0  0  0  0  0  0
    1.6230  -10.5280    8.7150 O   0  0  0  0  0  0  0  0  0  0  0  0
    0.2800   -8.5050    8.0710 N   0  0  0  0  0  0  0  0  0  0  0  0
    0.7340   -8.1890    8.9300 H   0  0  0  0  0  0  0  0  0  0  0  0
   -1.1370   -8.6680    8.2830 C   0  0  0  0  0  0  0  0  0  0  0  0
   -2.2490   -8.0600    6.9990 C   0  0  0  0  0  3  0  0  0  0  0  0
   -4.0400   -8.3550    7.1290 C   0  0  0  0  0  3  0  0  0  0  0  0
   -4.6980   -9.4060    8.4440 C   0  0  0  0  0  0  0  0  0  0  0  0
   -3.5800  -10.0440    9.6900 C   0  0  0  0  0  3  0  0  0  0  0  0
   -1.7970   -9.7410    9.5590 C   0  0  0  0  0  3  0  0  0  0  0  0
   -6.1300   -9.7200    8.5980 C   0  0  0  0  0  0  0  0  0  0  0  0
   -6.6440   -9.6880    9.8590 N   0  0  0  0  0  0  0  0  0  0  0  0
   -6.8160  -10.0090    7.6280 O   0  0  0  0  0  0  0  0  0  0  0  0
   -7.6280   -9.9080    9.9560 H   0  0  0  0  0  0  0  0  0  0  0  0
   -6.1200   -9.4820   10.6930 H   0  0  0  0  0  0  0  0  0  0  0  0
  1  2  1  1  0  0  0
  1 18  1  0  0  0  0
  2 13  1  0  0  0  0
  3  5  2  0  0  0  0
  3  2  1  0  0  0  0
  3  6  1  0  0  0  0
  4  3  2  0  0  0  0
  6 11  2  0  0  0  0
  6  7  1  0  0  0  0
  7  8  2  0  0  0  0
  8  9  1  0  0  0  0
  8 33  1  0  0  0  0
 10  9  2  0  0  0  0
 11 10  1  0  0  0  0
 12  1  1  0  0  0  0
 12 11  1  0  0  0  0
 12 14  1  0  0  0  0
 15 28  1  0  0  0  0
 15 25  1  0  0  0  0
 16 15  1  0  0  0  0
 17 16  2  0  0  0  0
 18 16  1  1  0  0  0
 18 19  1  0  0  0  0
 19 26  1  1  0  0  0
 19 20  1  0  0  0  0
 20 25  2  0  0  0  0
 20 21  1  0  0  0  0
 21 22  2  0  0  0  0
 22 23  1  0  0  0  0
 24 23  2  0  0  0  0
 25 24  1  0  0  0  0
 27 26  1  0  0  0  0
 28 29  1  0  0  0  0
 30 31  1  0  0  0  0
 32 31  1  0  0  0  0
 33 35  1  0  0  0  0
 33 34  1  0  0  0  0
 35 38  1  0  0  0  0
 35 37  2  0  0  0  0
 36 35  2  0  0  0  0
 38 40  1  0  0  0  0
 38 39  1  0  0  0  0
 40 45  1  0  0  0  0
 41 42  1  0  0  0  0
 41 40  2  0  0  0  0
 42 43  2  0  0  0  0
 43 46  1  0  0  0  0
 43 44  1  0  0  0  0
 45 44  2  0  0  0  0
 46 47  1  0  0  0  0
 47 49  1  0  0  0  0
 47 50  1  0  0  0  0
 48 46  2  0  0  0  0
M  END
>  <minimizedAffinity>
-6.90720701

$$$$
