
 OpenBabel09122222393D

 50 53  0  0  1  0  0  0  0  0999 V2000
    1.0970   -9.5680    8.3780 C   0  0  1  0  0  3  0  0  0  0  0  0
    2.2350   -9.8650    7.7920 N   0  0  0  0  0  0  0  0  0  0  0  0
    3.6100   -9.1060    8.1220 S   0  0  0  0  0  0  0  0  0  0  0  0
    4.1800   -9.5430    9.3790 O   0  0  0  0  0  0  0  0  0  0  0  0
    4.4250   -9.0810    6.9230 O   0  0  0  0  0  0  0  0  0  0  0  0
    3.0180   -7.4610    8.3680 C   0  0  0  0  0  0  0  0  0  0  0  0
    3.5470   -6.4020    7.6360 C   0  0  0  0  0  3  0  0  0  0  0  0
    2.8480   -5.2010    7.6250 C   0  0  0  0  0  0  0  0  0  0  0  0
    1.7490   -5.0150    8.4700 C   0  0  0  0  0  3  0  0  0  0  0  0
    1.2340   -6.0870    9.2070 C   0  0  0  0  0  3  0  0  0  0  0  0
    1.8180   -7.3470    9.0800 C   0  0  0  0  0  0  0  0  0  0  0  0
    1.0640   -8.5150    9.3440 N   0  0  0  0  0  0  0  0  0  0  0  0
    2.2240  -10.4740    6.9810 H   0  0  0  0  0  0  0  0  0  0  0  0
    0.1680   -8.3490    9.8050 H   0  0  0  0  0  0  0  0  0  0  0  0
   -1.5130   -9.5750    5.8240 N   0  0  0  0  0  0  0  0  0  0  0  0
   -0.2900   -9.9380    6.3290 C   0  0  0  0  0  0  0  0  0  0  0  0
    0.7540   -9.9710    5.6720 O   0  0  0  0  0  0  0  0  0  0  0  0
   -0.1920  -10.0860    7.8180 C   0  0  2  0  0  3  0  0  0  0  0  0
   -1.3210  -10.2610    8.5250 C   0  0  2  0  0  3  0  0  0  0  0  0
   -2.6280  -10.2600    7.8580 C   0  0  0  0  0  0  0  0  0  0  0  0
   -3.8250  -10.5370    8.5270 C   0  0  0  0  0  3  0  0  0  0  0  0
   -5.0400  -10.3760    7.8660 C   0  0  0  0  0  3  0  0  0  0  0  0
   -5.0200   -9.9250    6.5600 C   0  0  0  0  0  3  0  0  0  0  0  0
   -3.8840   -9.6580    5.8840 N   0  0  0  0  0  0  0  0  0  0  0  0
   -2.7100   -9.8360    6.5300 C   0  0  0  0  0  0  0  0  0  0  0  0
   -1.3460  -10.3180    9.9060 O   0  0  0  0  0  0  0  0  0  0  0  0
   -0.6410  -10.9240   10.2080 H   0  0  0  0  0  0  0  0  0  0  0  0
   -1.5870   -8.7360    4.6100 C   0  0  0  0  0  2  0  0  0  0  0  0
   -2.1670   -7.1230    5.0680 C   0  0  0  0  0  1  0  0  0  0  0  0
   -4.8010   -5.5640    6.9440 C   0  0  0  0  0  1  0  0  0  0  0  0
   -3.2090   -6.2930    6.8180 C   0  0  0  0  0  2  0  0  0  0  0  0
   -3.3540   -6.9390    8.4500 C   0  0  0  0  0  1  0  0  0  0  0  0
    3.1220   -4.2760    6.5750 N   0  0  0  0  0  0  0  0  0  0  0  0
    2.3240   -3.8470    6.1070 H   0  0  0  0  0  0  0  0  0  0  0  0
    4.3330   -3.1240    6.8660 S   0  0  0  0  0  0  0  0  0  0  0  0
    3.7410   -2.0230    7.5810 O   0  0  0  0  0  0  0  0  0  0  0  0
    5.4630   -3.8630    7.3740 O   0  0  0  0  0  0  0  0  0  0  0  0
    4.7430   -2.6820    5.2770 N   0  0  0  0  0  0  0  0  0  0  0  0
    3.9370   -2.1820    4.8990 H   0  0  0  0  0  0  0  0  0  0  0  0
    5.1530   -3.7280    4.3720 C   0  0  0  0  0  0  0  0  0  0  0  0
    3.9410   -4.9970    3.9570 C   0  0  0  0  0  3  0  0  0  0  0  0
    4.3380   -6.2680    2.7160 C   0  0  0  0  0  3  0  0  0  0  0  0
    5.8720   -6.1660    1.7660 C   0  0  0  0  0  0  0  0  0  0  0  0
    7.0520   -4.8740    2.1540 C   0  0  0  0  0  3  0  0  0  0  0  0
    6.6530   -3.6150    3.3960 C   0  0  0  0  0  3  0  0  0  0  0  0
    6.2520   -7.1350    0.7220 C   0  0  0  0  0  0  0  0  0  0  0  0
    7.0310   -8.1870    1.1000 N   0  0  0  0  0  0  0  0  0  0  0  0
    5.8870   -6.9840   -0.4350 O   0  0  0  0  0  0  0  0  0  0  0  0
    7.2890   -8.8450    0.3760 H   0  0  0  0  0  0  0  0  0  0  0  0
    7.3790   -8.3440    2.0300 H   0  0  0  0  0  0  0  0  0  0  0  0
  1  2  1  6  0  0  0
  1 12  1  0  0  0  0
  2  3  1  0  0  0  0
  3  6  1  0  0  0  0
  3  4  2  0  0  0  0
  5  3  2  0  0  0  0
  6 11  1  0  0  0  0
  7  6  2  0  0  0  0
  8  7  1  0  0  0  0
  8  9  2  0  0  0  0
  9 10  1  0  0  0  0
 11 10  2  0  0  0  0
 11 12  1  0  0  0  0
 12 14  1  0  0  0  0
 13  2  1  0  0  0  0
 15 16  1  0  0  0  0
 15 25  1  0  0  0  0
 17 16  2  0  0  0  0
 18 16  1  6  0  0  0
 18  1  1  0  0  0  0
 18 19  1  0  0  0  0
 19 26  1  1  0  0  0
 20 19  1  0  0  0  0
 20 21  1  0  0  0  0
 22 21  2  0  0  0  0
 23 22  1  0  0  0  0
 24 25  1  0  0  0  0
 24 23  2  0  0  0  0
 25 20  2  0  0  0  0
 26 27  1  0  0  0  0
 28 29  1  0  0  0  0
 28 15  1  0  0  0  0
 31 30  1  0  0  0  0
 31 32  1  0  0  0  0
 33 35  1  0  0  0  0
 33  8  1  0  0  0  0
 34 33  1  0  0  0  0
 35 37  2  0  0  0  0
 35 36  2  0  0  0  0
 38 35  1  0  0  0  0
 39 38  1  0  0  0  0
 40 38  1  0  0  0  0
 41 40  1  0  0  0  0
 42 41  2  0  0  0  0
 43 44  2  0  0  0  0
 43 42  1  0  0  0  0
 44 45  1  0  0  0  0
 45 40  2  0  0  0  0
 46 47  1  0  0  0  0
 46 43  1  0  0  0  0
 47 50  1  0  0  0  0
 48 46  2  0  0  0  0
 49 47  1  0  0  0  0
M  END
>  <minimizedAffinity>
-5.65090895

$$$$
