
 OpenBabel09122222393D

 46 51  0  0  0  0  0  0  0  0999 V2000
   10.7560    6.3920    1.3360 C   0  0  0  0  0  0  0  0  0  0  0  0
   11.4360    5.5850    2.2460 C   0  0  0  0  0  3  0  0  0  0  0  0
   11.1750    4.2100    2.2950 C   0  0  0  0  0  3  0  0  0  0  0  0
   10.2610    3.6210    1.4120 C   0  0  0  0  0  0  0  0  0  0  0  0
    9.6090    4.4430    0.4900 C   0  0  0  0  0  0  0  0  0  0  0  0
    8.7200    3.9310   -0.3750 F   0  0  0  0  0  0  0  0  0  0  0  0
    9.8620    5.8120    0.4380 C   0  0  0  0  0  3  0  0  0  0  0  0
    9.9790    2.1900    1.5250 C   0  0  0  0  0  0  0  0  0  0  0  0
    9.5980    1.6250    2.6540 N   0  0  0  0  0  0  0  0  0  0  0  0
    9.4130    0.2950    2.3790 C   0  0  0  0  0  0  0  0  0  0  0  0
    8.9830   -0.7390    3.2260 C   0  0  0  0  0  3  0  0  0  0  0  0
    8.8690   -2.0520    2.7310 C   0  0  0  0  0  0  0  0  0  0  0  0
    9.1900   -2.2940    1.3860 C   0  0  0  0  0  3  0  0  0  0  0  0
    9.6240   -1.2780    0.5260 C   0  0  0  0  0  3  0  0  0  0  0  0
    9.7280    0.0170    1.0510 C   0  0  0  0  0  0  0  0  0  0  0  0
   10.1260    1.2340    0.5300 N   0  0  0  0  0  0  0  0  0  0  0  0
   10.6950    1.4570   -0.7960 C   0  0  0  0  0  3  0  0  0  0  0  0
   12.0660    2.1560   -0.7470 C   0  0  0  0  0  2  0  0  0  0  0  0
   12.5940    2.4390   -2.1530 C   0  0  0  0  0  2  0  0  0  0  0  0
   12.6300    1.1740   -3.0060 C   0  0  0  0  0  2  0  0  0  0  0  0
   11.2670    0.4870   -3.0590 C   0  0  0  0  0  2  0  0  0  0  0  0
   10.7320    0.1870   -1.6600 C   0  0  0  0  0  2  0  0  0  0  0  0
    8.4100   -3.1820    3.6300 C   0  0  0  0  0  0  0  0  0  0  0  0
    9.1010   -3.4160    4.6710 O   0  0  0  0  0  1  0  0  0  0  0  0
    7.3660   -3.8150    3.2740 O   0  0  0  0  0  0  0  0  0  0  0  0
   10.9100    7.7450    1.2150 O   0  0  0  0  0  0  0  0  0  0  0  0
    9.9370    8.5740    1.8600 C   0  0  0  0  0  2  0  0  0  0  0  0
    9.6880   11.6410   -0.4190 C   0  0  0  0  0  0  0  0  0  0  0  0
   10.1420   12.6480    0.4340 C   0  0  0  0  0  3  0  0  0  0  0  0
   10.5290   12.3580    1.7480 C   0  0  0  0  0  3  0  0  0  0  0  0
   10.4690   11.0500    2.2550 C   0  0  0  0  0  0  0  0  0  0  0  0
    9.9990   10.0230    1.4120 C   0  0  0  0  0  0  0  0  0  0  0  0
    9.6020   10.3400    0.0940 C   0  0  0  0  0  3  0  0  0  0  0  0
   10.8800   10.8140    3.6440 C   0  0  0  0  0  0  0  0  0  0  0  0
   10.3350   11.5760    4.6900 C   0  0  0  0  0  3  0  0  0  0  0  0
   10.7350   11.3610    6.0130 C   0  0  0  0  0  3  0  0  0  0  0  0
   11.6860   10.3830    6.2970 C   0  0  0  0  0  0  0  0  0  0  0  0
   12.1770   10.1190    7.9240 Cl  0  0  0  0  0  0  0  0  0  0  0  0
   12.2420    9.6220    5.2730 C   0  0  0  0  0  3  0  0  0  0  0  0
   11.8430    9.8400    3.9520 C   0  0  0  0  0  3  0  0  0  0  0  0
    9.2620   11.9370   -1.7520 N   0  0  0  0  0  0  0  0  0  0  0  0
    7.9460   12.2170   -2.1310 C   0  0  0  0  0  0  0  0  0  0  0  0
    7.0010   12.7770   -1.0910 C   0  0  0  0  0  1  0  0  0  0  0  0
    7.5530   12.0910   -3.2940 O   0  0  0  0  0  0  0  0  0  0  0  0
   10.8290   13.2390   -3.1730 C   0  0  0  0  0  1  0  0  0  0  0  0
   10.2510   11.8710   -2.8340 C   0  0  0  0  0  2  0  0  0  0  0  0
  1  2  1  0  0  0  0
  2  3  2  0  0  0  0
  4  8  1  0  0  0  0
  4  3  1  0  0  0  0
  5  4  2  0  0  0  0
  6  5  1  0  0  0  0
  7  5  1  0  0  0  0
  7  1  2  0  0  0  0
  8  9  2  0  0  0  0
 10  9  1  0  0  0  0
 10 11  1  0  0  0  0
 12 11  2  0  0  0  0
 12 23  1  0  0  0  0
 13 12  1  0  0  0  0
 14 15  1  0  0  0  0
 14 13  2  0  0  0  0
 15 10  2  0  0  0  0
 16 15  1  0  0  0  0
 16  8  1  0  0  0  0
 17 18  1  0  0  0  0
 17 16  1  0  0  0  0
 19 18  1  0  0  0  0
 20 19  1  0  0  0  0
 21 20  1  0  0  0  0
 21 22  1  0  0  0  0
 22 17  1  0  0  0  0
 23 24  1  0  0  0  0
 25 23  2  0  0  0  0
 26  1  1  0  0  0  0
 26 27  1  0  0  0  0
 28 33  2  0  0  0  0
 28 29  1  0  0  0  0
 29 30  2  0  0  0  0
 30 31  1  0  0  0  0
 31 34  1  0  0  0  0
 32 27  1  0  0  0  0
 32 31  2  0  0  0  0
 33 32  1  0  0  0  0
 34 40  2  0  0  0  0
 34 35  1  0  0  0  0
 35 36  2  0  0  0  0
 36 37  1  0  0  0  0
 37 38  1  0  0  0  0
 39 37  2  0  0  0  0
 40 39  1  0  0  0  0
 41 28  1  0  0  0  0
 42 41  1  0  0  0  0
 42 43  1  0  0  0  0
 44 42  2  0  0  0  0
 45 46  1  0  0  0  0
 46 41  1  0  0  0  0
M  END
>  <minimizedAffinity>
-6.51017952

$$$$
