
 OpenBabel09122222393D

 46 51  0  0  0  0  0  0  0  0999 V2000
   11.7760    5.9050    3.8550 C   0  0  0  0  0  0  0  0  0  0  0  0
   10.5270    5.5580    4.3670 C   0  0  0  0  0  3  0  0  0  0  0  0
   10.1310    4.2150    4.4000 C   0  0  0  0  0  3  0  0  0  0  0  0
   10.9920    3.2030    3.9560 C   0  0  0  0  0  0  0  0  0  0  0  0
   12.2490    3.5680    3.4710 C   0  0  0  0  0  0  0  0  0  0  0  0
   13.1100    2.6390    3.0300 F   0  0  0  0  0  0  0  0  0  0  0  0
   12.6480    4.9030    3.4330 C   0  0  0  0  0  3  0  0  0  0  0  0
   10.5250    1.8160    3.9610 C   0  0  0  0  0  0  0  0  0  0  0  0
    9.9610    1.2490    2.9130 N   0  0  0  0  0  0  0  0  0  0  0  0
    9.6740   -0.0410    3.2770 C   0  0  0  0  0  0  0  0  0  0  0  0
    9.0950   -1.0720    2.5200 C   0  0  0  0  0  3  0  0  0  0  0  0
    8.8800   -2.3360    3.1040 C   0  0  0  0  0  0  0  0  0  0  0  0
    9.2560   -2.5330    4.4410 C   0  0  0  0  0  3  0  0  0  0  0  0
    9.8320   -1.5160    5.2140 C   0  0  0  0  0  3  0  0  0  0  0  0
   10.0310   -0.2710    4.6030 C   0  0  0  0  0  0  0  0  0  0  0  0
   10.5370    0.9400    5.0380 N   0  0  0  0  0  0  0  0  0  0  0  0
   10.9220    1.2700    6.4070 C   0  0  0  0  0  3  0  0  0  0  0  0
   12.3240    1.9010    6.4980 C   0  0  0  0  0  2  0  0  0  0  0  0
   12.7190    2.1630    7.9500 C   0  0  0  0  0  2  0  0  0  0  0  0
   11.6710    3.0000    8.6780 C   0  0  0  0  0  2  0  0  0  0  0  0
   10.2830    2.3690    8.5920 C   0  0  0  0  0  2  0  0  0  0  0  0
    9.8690    2.1110    7.1450 C   0  0  0  0  0  2  0  0  0  0  0  0
    8.2530   -3.4610    2.3050 C   0  0  0  0  0  0  0  0  0  0  0  0
    7.2800   -4.0820    2.8360 O   0  0  0  0  0  1  0  0  0  0  0  0
    8.7510   -3.7020    1.1590 O   0  0  0  0  0  0  0  0  0  0  0  0
   12.2570    7.1800    3.7500 O   0  0  0  0  0  0  0  0  0  0  0  0
   12.8090    7.5700    2.4870 C   0  0  0  0  0  2  0  0  0  0  0  0
   10.8570   10.5670    1.1200 C   0  0  0  0  0  0  0  0  0  0  0  0
   10.0320    9.9450    0.1820 C   0  0  0  0  0  3  0  0  0  0  0  0
   10.0930    8.5630   -0.0260 C   0  0  0  0  0  3  0  0  0  0  0  0
   10.9870    7.7540    0.6940 C   0  0  0  0  0  0  0  0  0  0  0  0
   11.8380    8.3670    1.6350 C   0  0  0  0  0  0  0  0  0  0  0  0
   11.7690    9.7660    1.8200 C   0  0  0  0  0  3  0  0  0  0  0  0
   11.0070    6.3120    0.4220 C   0  0  0  0  0  0  0  0  0  0  0  0
   12.1690    5.6940   -0.0680 C   0  0  0  0  0  3  0  0  0  0  0  0
   12.1870    4.3220   -0.3380 C   0  0  0  0  0  3  0  0  0  0  0  0
   11.0410    3.5600   -0.1240 C   0  0  0  0  0  0  0  0  0  0  0  0
   11.0630    1.8730   -0.4580 Cl  0  0  0  0  0  0  0  0  0  0  0  0
    9.8770    4.1560    0.3570 C   0  0  0  0  0  3  0  0  0  0  0  0
    9.8610    5.5270    0.6240 C   0  0  0  0  0  3  0  0  0  0  0  0
   10.8210   11.9840    1.3130 N   0  0  0  0  0  0  0  0  0  0  0  0
   11.8030   12.8800    0.8800 C   0  0  0  0  0  0  0  0  0  0  0  0
   12.6660   12.4850   -0.2980 C   0  0  0  0  0  1  0  0  0  0  0  0
   11.9390   14.0020    1.3760 O   0  0  0  0  0  0  0  0  0  0  0  0
    9.4030   11.7340    3.3370 C   0  0  0  0  0  1  0  0  0  0  0  0
    9.7170   12.5560    2.0930 C   0  0  0  0  0  2  0  0  0  0  0  0
  1  2  1  0  0  0  0
  2  3  2  0  0  0  0
  4  8  1  0  0  0  0
  4  3  1  0  0  0  0
  5  4  2  0  0  0  0
  6  5  1  0  0  0  0
  7  5  1  0  0  0  0
  7  1  2  0  0  0  0
  8 16  1  0  0  0  0
  9 10  1  0  0  0  0
  9  8  2  0  0  0  0
 10 15  1  0  0  0  0
 11 12  1  0  0  0  0
 11 10  2  0  0  0  0
 12 13  2  0  0  0  0
 13 14  1  0  0  0  0
 15 16  1  0  0  0  0
 15 14  2  0  0  0  0
 16 17  1  0  0  0  0
 17 18  1  0  0  0  0
 17 22  1  0  0  0  0
 18 19  1  0  0  0  0
 19 20  1  0  0  0  0
 21 20  1  0  0  0  0
 22 21  1  0  0  0  0
 23 24  1  0  0  0  0
 23 12  1  0  0  0  0
 25 23  2  0  0  0  0
 26  1  1  0  0  0  0
 27 26  1  0  0  0  0
 28 41  1  0  0  0  0
 28 33  1  0  0  0  0
 29 28  2  0  0  0  0
 30 29  1  0  0  0  0
 30 31  2  0  0  0  0
 31 32  1  0  0  0  0
 32 33  2  0  0  0  0
 32 27  1  0  0  0  0
 34 40  1  0  0  0  0
 34 31  1  0  0  0  0
 35 34  2  0  0  0  0
 36 37  2  0  0  0  0
 36 35  1  0  0  0  0
 37 39  1  0  0  0  0
 38 37  1  0  0  0  0
 39 40  2  0  0  0  0
 41 46  1  0  0  0  0
 42 41  1  0  0  0  0
 42 44  2  0  0  0  0
 43 42  1  0  0  0  0
 46 45  1  0  0  0  0
M  END
>  <minimizedAffinity>
-6.8566885

$$$$
