
 OpenBabel09122222393D

 46 51  0  0  0  0  0  0  0  0999 V2000
   11.2990    6.5930   -0.2200 C   0  0  0  0  0  0  0  0  0  0  0  0
    9.9740    6.1830   -0.0810 C   0  0  0  0  0  3  0  0  0  0  0  0
    9.6810    4.9490    0.5130 C   0  0  0  0  0  3  0  0  0  0  0  0
   10.7040    4.1290    1.0050 C   0  0  0  0  0  0  0  0  0  0  0  0
   12.0230    4.5690    0.8800 C   0  0  0  0  0  0  0  0  0  0  0  0
   13.0410    3.8200    1.3310 F   0  0  0  0  0  0  0  0  0  0  0  0
   12.3220    5.7940    0.2880 C   0  0  0  0  0  3  0  0  0  0  0  0
   10.3620    2.8260    1.5750 C   0  0  0  0  0  0  0  0  0  0  0  0
    9.8320    1.8520    0.8610 N   0  0  0  0  0  0  0  0  0  0  0  0
    9.6660    0.7920    1.7150 C   0  0  0  0  0  0  0  0  0  0  0  0
    9.1670   -0.4940    1.4520 C   0  0  0  0  0  3  0  0  0  0  0  0
    9.0750   -1.4390    2.4920 C   0  0  0  0  0  0  0  0  0  0  0  0
    9.4910   -1.0640    3.7790 C   0  0  0  0  0  3  0  0  0  0  0  0
    9.9880    0.2140    4.0630 C   0  0  0  0  0  3  0  0  0  0  0  0
   10.0650    1.1290    3.0060 C   0  0  0  0  0  0  0  0  0  0  0  0
   10.4710    2.4470    2.9060 N   0  0  0  0  0  0  0  0  0  0  0  0
   10.8490    3.3170    4.0170 C   0  0  0  0  0  3  0  0  0  0  0  0
    9.7260    3.4800    5.0570 C   0  0  0  0  0  2  0  0  0  0  0  0
   10.1330    4.4540    6.1620 C   0  0  0  0  0  2  0  0  0  0  0  0
   11.4550    4.0520    6.8100 C   0  0  0  0  0  2  0  0  0  0  0  0
   12.5680    3.8980    5.7760 C   0  0  0  0  0  2  0  0  0  0  0  0
   12.1810    2.9180    4.6710 C   0  0  0  0  0  2  0  0  0  0  0  0
    8.5360   -2.8300    2.2290 C   0  0  0  0  0  0  0  0  0  0  0  0
    8.7760   -3.3430    1.0920 O   0  0  0  0  0  0  0  0  0  0  0  0
    7.8790   -3.3820    3.1690 O   0  0  0  0  0  1  0  0  0  0  0  0
   11.7050    7.7610   -0.8040 O   0  0  0  0  0  0  0  0  0  0  0  0
   12.2670    8.7610    0.0540 C   0  0  0  0  0  2  0  0  0  0  0  0
    9.7340   11.6160   -0.2420 C   0  0  0  0  0  0  0  0  0  0  0  0
    9.4510   11.8650    1.1020 C   0  0  0  0  0  3  0  0  0  0  0  0
   10.0640   11.1210    2.1160 C   0  0  0  0  0  3  0  0  0  0  0  0
   10.9780   10.0970    1.8210 C   0  0  0  0  0  0  0  0  0  0  0  0
   11.2640    9.8220    0.4680 C   0  0  0  0  0  0  0  0  0  0  0  0
   10.6240   10.5760   -0.5400 C   0  0  0  0  0  3  0  0  0  0  0  0
   11.5790    9.3480    2.9310 C   0  0  0  0  0  0  0  0  0  0  0  0
   11.1260    8.0580    3.2500 C   0  0  0  0  0  3  0  0  0  0  0  0
   11.6900    7.3480    4.3150 C   0  0  0  0  0  3  0  0  0  0  0  0
   12.7080    7.9250    5.0690 C   0  0  0  0  0  0  0  0  0  0  0  0
   13.4010    7.0510    6.3790 Cl  0  0  0  0  0  0  0  0  0  0  0  0
   13.1670    9.2060    4.7710 C   0  0  0  0  0  3  0  0  0  0  0  0
   12.6010    9.9150    3.7080 C   0  0  0  0  0  3  0  0  0  0  0  0
    9.0860   12.3520   -1.2830 N   0  0  0  0  0  0  0  0  0  0  0  0
    7.7030   12.5020   -1.4210 C   0  0  0  0  0  0  0  0  0  0  0  0
    6.8400   12.3820   -0.1840 C   0  0  0  0  0  1  0  0  0  0  0  0
    7.1740   12.7990   -2.4960 O   0  0  0  0  0  0  0  0  0  0  0  0
   10.6580   14.1810   -1.8790 C   0  0  0  0  0  1  0  0  0  0  0  0
    9.9120   12.9370   -2.3460 C   0  0  0  0  0  2  0  0  0  0  0  0
  1  2  2  0  0  0  0
  1  7  1  0  0  0  0
  2  3  1  0  0  0  0
  3  4  2  0  0  0  0
  4  8  1  0  0  0  0
  5  4  1  0  0  0  0
  5  6  1  0  0  0  0
  7  5  2  0  0  0  0
  8 16  1  0  0  0  0
  9  8  2  0  0  0  0
  9 10  1  0  0  0  0
 10 15  1  0  0  0  0
 11 10  2  0  0  0  0
 11 12  1  0  0  0  0
 12 13  2  0  0  0  0
 13 14  1  0  0  0  0
 15 14  2  0  0  0  0
 16 15  1  0  0  0  0
 16 17  1  0  0  0  0
 17 22  1  0  0  0  0
 17 18  1  0  0  0  0
 18 19  1  0  0  0  0
 19 20  1  0  0  0  0
 21 20  1  0  0  0  0
 22 21  1  0  0  0  0
 23 12  1  0  0  0  0
 23 25  1  0  0  0  0
 24 23  2  0  0  0  0
 26  1  1  0  0  0  0
 26 27  1  0  0  0  0
 27 32  1  0  0  0  0
 28 29  1  0  0  0  0
 29 30  2  0  0  0  0
 31 30  1  0  0  0  0
 31 34  1  0  0  0  0
 32 31  2  0  0  0  0
 33 28  2  0  0  0  0
 33 32  1  0  0  0  0
 34 35  2  0  0  0  0
 34 40  1  0  0  0  0
 35 36  1  0  0  0  0
 36 37  2  0  0  0  0
 37 38  1  0  0  0  0
 39 37  1  0  0  0  0
 40 39  2  0  0  0  0
 41 28  1  0  0  0  0
 42 41  1  0  0  0  0
 42 43  1  0  0  0  0
 44 42  2  0  0  0  0
 46 45  1  0  0  0  0
 46 41  1  0  0  0  0
M  END
>  <minimizedAffinity>
-6.8905158

$$$$
