
 OpenBabel09122222393D

 46 51  0  0  0  0  0  0  0  0999 V2000
   10.3310    3.1230    1.5190 C   0  0  0  0  0  0  0  0  0  0  0  0
    9.7530    3.5630    0.3300 C   0  0  0  0  0  3  0  0  0  0  0  0
    9.6850    4.9340    0.0500 C   0  0  0  0  0  3  0  0  0  0  0  0
   10.2240    5.8750    0.9360 C   0  0  0  0  0  0  0  0  0  0  0  0
   10.8210    5.4120    2.1110 C   0  0  0  0  0  0  0  0  0  0  0  0
   11.3480    6.2710    2.9950 F   0  0  0  0  0  0  0  0  0  0  0  0
   10.8900    4.0510    2.3970 C   0  0  0  0  0  3  0  0  0  0  0  0
   10.0900    7.3000    0.6320 C   0  0  0  0  0  0  0  0  0  0  0  0
    8.9810    7.9770    0.8580 N   0  0  0  0  0  0  0  0  0  0  0  0
    9.2300    9.2680    0.4700 C   0  0  0  0  0  0  0  0  0  0  0  0
    8.3910   10.3930    0.5280 C   0  0  0  0  0  3  0  0  0  0  0  0
    8.8530   11.6390    0.0620 C   0  0  0  0  0  0  0  0  0  0  0  0
   10.1560   11.7240   -0.4530 C   0  0  0  0  0  3  0  0  0  0  0  0
   11.0070   10.6130   -0.5220 C   0  0  0  0  0  3  0  0  0  0  0  0
   10.5160    9.3890   -0.0510 C   0  0  0  0  0  0  0  0  0  0  0  0
   11.0380    8.1110    0.0240 N   0  0  0  0  0  0  0  0  0  0  0  0
   12.3160    7.6700   -0.5290 C   0  0  0  0  0  3  0  0  0  0  0  0
   12.3320    7.6690   -2.0680 C   0  0  0  0  0  2  0  0  0  0  0  0
   13.6570    7.1320   -2.6070 C   0  0  0  0  0  2  0  0  0  0  0  0
   14.8490    7.8870   -2.0260 C   0  0  0  0  0  2  0  0  0  0  0  0
   14.8340    7.8810   -0.4990 C   0  0  0  0  0  2  0  0  0  0  0  0
   13.5200    8.4260    0.0550 C   0  0  0  0  0  2  0  0  0  0  0  0
    7.9620   12.8630    0.1120 C   0  0  0  0  0  0  0  0  0  0  0  0
    7.3290   13.0800    1.1930 O   0  0  0  0  0  1  0  0  0  0  0  0
    7.9110   13.5830   -0.9350 O   0  0  0  0  0  0  0  0  0  0  0  0
   10.4300    1.8160    1.9100 O   0  0  0  0  0  0  0  0  0  0  0  0
    9.3440    1.2750    2.6700 C   0  0  0  0  0  2  0  0  0  0  0  0
    9.3610   -2.5410    2.3620 C   0  0  0  0  0  0  0  0  0  0  0  0
    9.8020   -2.9110    3.6330 C   0  0  0  0  0  3  0  0  0  0  0  0
   10.1030   -1.9460    4.6000 C   0  0  0  0  0  3  0  0  0  0  0  0
    9.9770   -0.5740    4.3270 C   0  0  0  0  0  0  0  0  0  0  0  0
    9.5460   -0.1820    3.0440 C   0  0  0  0  0  0  0  0  0  0  0  0
    9.2610   -1.1730    2.0790 C   0  0  0  0  0  3  0  0  0  0  0  0
   10.3170    0.3880    5.3820 C   0  0  0  0  0  0  0  0  0  0  0  0
   11.2970    1.3700    5.1650 C   0  0  0  0  0  3  0  0  0  0  0  0
   11.6300    2.2800    6.1730 C   0  0  0  0  0  3  0  0  0  0  0  0
   10.9870    2.2110    7.4070 C   0  0  0  0  0  0  0  0  0  0  0  0
   11.3980    3.3300    8.6470 Cl  0  0  0  0  0  0  0  0  0  0  0  0
   10.0160    1.2410    7.6430 C   0  0  0  0  0  3  0  0  0  0  0  0
    9.6860    0.3310    6.6350 C   0  0  0  0  0  3  0  0  0  0  0  0
    9.0830   -3.5230    1.3600 N   0  0  0  0  0  0  0  0  0  0  0  0
    9.7850   -3.6680    0.1600 C   0  0  0  0  0  0  0  0  0  0  0  0
   11.2160   -3.1800    0.1000 C   0  0  0  0  0  1  0  0  0  0  0  0
    9.3050   -4.2420   -0.8220 O   0  0  0  0  0  0  0  0  0  0  0  0
    6.9370   -3.8540    2.5660 C   0  0  0  0  0  1  0  0  0  0  0  0
    7.9260   -4.4070    1.5470 C   0  0  0  0  0  2  0  0  0  0  0  0
  1 26  1  0  0  0  0
  1  7  1  0  0  0  0
  2  1  2  0  0  0  0
  3  2  1  0  0  0  0
  3  4  2  0  0  0  0
  4  5  1  0  0  0  0
  5  7  2  0  0  0  0
  5  6  1  0  0  0  0
  8  9  2  0  0  0  0
  8  4  1  0  0  0  0
 10 11  1  0  0  0  0
 10  9  1  0  0  0  0
 12 23  1  0  0  0  0
 12 11  2  0  0  0  0
 13 12  1  0  0  0  0
 14 13  2  0  0  0  0
 14 15  1  0  0  0  0
 15 16  1  0  0  0  0
 15 10  2  0  0  0  0
 16  8  1  0  0  0  0
 17 16  1  0  0  0  0
 17 22  1  0  0  0  0
 18 17  1  0  0  0  0
 19 18  1  0  0  0  0
 19 20  1  0  0  0  0
 20 21  1  0  0  0  0
 21 22  1  0  0  0  0
 23 24  1  0  0  0  0
 25 23  2  0  0  0  0
 26 27  1  0  0  0  0
 27 32  1  0  0  0  0
 28 29  1  0  0  0  0
 29 30  2  0  0  0  0
 31 30  1  0  0  0  0
 31 34  1  0  0  0  0
 32 31  2  0  0  0  0
 33 28  2  0  0  0  0
 33 32  1  0  0  0  0
 34 40  1  0  0  0  0
 35 34  2  0  0  0  0
 35 36  1  0  0  0  0
 36 37  2  0  0  0  0
 37 39  1  0  0  0  0
 37 38  1  0  0  0  0
 40 39  2  0  0  0  0
 41 46  1  0  0  0  0
 41 28  1  0  0  0  0
 42 41  1  0  0  0  0
 43 42  1  0  0  0  0
 44 42  2  0  0  0  0
 46 45  1  0  0  0  0
M  END
>  <minimizedAffinity>
-6.72793722

$$$$
