
 OpenBabel09122222393D

 46 51  0  0  0  0  0  0  0  0999 V2000
   11.4300    4.4720    3.5290 C   0  0  0  0  0  0  0  0  0  0  0  0
   10.4500    5.4410    3.3250 C   0  0  0  0  0  3  0  0  0  0  0  0
   10.6930    6.7710    3.6870 C   0  0  0  0  0  3  0  0  0  0  0  0
   11.9290    7.1540    4.2240 C   0  0  0  0  0  0  0  0  0  0  0  0
   12.9070    6.1730    4.3970 C   0  0  0  0  0  0  0  0  0  0  0  0
   14.1060    6.4850    4.9110 F   0  0  0  0  0  0  0  0  0  0  0  0
   12.6710    4.8470    4.0410 C   0  0  0  0  0  3  0  0  0  0  0  0
   12.1290    8.5440    4.6350 C   0  0  0  0  0  0  0  0  0  0  0  0
   11.5970    9.0470    5.7320 N   0  0  0  0  0  0  0  0  0  0  0  0
   12.0090   10.3530    5.7990 C   0  0  0  0  0  0  0  0  0  0  0  0
   11.7470   11.3200    6.7830 C   0  0  0  0  0  3  0  0  0  0  0  0
   12.2710   12.6200    6.6470 C   0  0  0  0  0  0  0  0  0  0  0  0
   13.0530   12.9160    5.5190 C   0  0  0  0  0  3  0  0  0  0  0  0
   13.3230   11.9670    4.5250 C   0  0  0  0  0  3  0  0  0  0  0  0
   12.7850   10.6840    4.6910 C   0  0  0  0  0  0  0  0  0  0  0  0
   12.8180    9.5260    3.9370 N   0  0  0  0  0  0  0  0  0  0  0  0
   13.3880    9.3850    2.5990 C   0  0  0  0  0  3  0  0  0  0  0  0
   13.2810   10.6760    1.7670 C   0  0  0  0  0  2  0  0  0  0  0  0
   13.8200   10.4680    0.3520 C   0  0  0  0  0  2  0  0  0  0  0  0
   15.2420    9.9160    0.3660 C   0  0  0  0  0  2  0  0  0  0  0  0
   15.3430    8.6320    1.1870 C   0  0  0  0  0  2  0  0  0  0  0  0
   14.8200    8.8270    2.6080 C   0  0  0  0  0  2  0  0  0  0  0  0
   11.9970   13.6790    7.6950 C   0  0  0  0  0  0  0  0  0  0  0  0
   12.6120   13.5770    8.8030 O   0  0  0  0  0  1  0  0  0  0  0  0
   11.1660   14.5930    7.3880 O   0  0  0  0  0  0  0  0  0  0  0  0
   11.2960    3.1430    3.2390 O   0  0  0  0  0  0  0  0  0  0  0  0
    9.9980    2.6870    2.8400 C   0  0  0  0  0  2  0  0  0  0  0  0
    9.8210   -0.4420    0.6400 C   0  0  0  0  0  0  0  0  0  0  0  0
   10.1310    0.0920   -0.6120 C   0  0  0  0  0  3  0  0  0  0  0  0
   10.3970    1.4570   -0.7670 C   0  0  0  0  0  3  0  0  0  0  0  0
   10.3550    2.3380    0.3260 C   0  0  0  0  0  0  0  0  0  0  0  0
   10.0290    1.8190    1.5950 C   0  0  0  0  0  0  0  0  0  0  0  0
    9.7520    0.4400    1.7260 C   0  0  0  0  0  3  0  0  0  0  0  0
   10.6350    3.7600    0.0950 C   0  0  0  0  0  0  0  0  0  0  0  0
   11.9570    4.2230    0.0050 C   0  0  0  0  0  3  0  0  0  0  0  0
   12.2250    5.5800   -0.2040 C   0  0  0  0  0  3  0  0  0  0  0  0
   11.1710    6.4830   -0.3200 C   0  0  0  0  0  0  0  0  0  0  0  0
   11.5020    8.1510   -0.5760 Cl  0  0  0  0  0  0  0  0  0  0  0  0
    9.8530    6.0430   -0.2280 C   0  0  0  0  0  3  0  0  0  0  0  0
    9.5870    4.6880   -0.0180 C   0  0  0  0  0  3  0  0  0  0  0  0
    9.5180   -1.8310    0.7980 N   0  0  0  0  0  0  0  0  0  0  0  0
    9.9140   -2.8450   -0.0790 C   0  0  0  0  0  0  0  0  0  0  0  0
   11.1490   -2.6210   -0.9240 C   0  0  0  0  0  1  0  0  0  0  0  0
    9.3380   -3.9350   -0.1330 O   0  0  0  0  0  0  0  0  0  0  0  0
    9.4610   -2.7150    3.1180 C   0  0  0  0  0  1  0  0  0  0  0  0
    8.6570   -2.2370    1.9150 C   0  0  0  0  0  2  0  0  0  0  0  0
  1  7  1  0  0  0  0
  2  1  2  0  0  0  0
  2  3  1  0  0  0  0
  3  4  2  0  0  0  0
  4  5  1  0  0  0  0
  4  8  1  0  0  0  0
  5  6  1  0  0  0  0
  7  5  2  0  0  0  0
  8  9  2  0  0  0  0
  9 10  1  0  0  0  0
 10 11  1  0  0  0  0
 12 11  2  0  0  0  0
 12 23  1  0  0  0  0
 13 12  1  0  0  0  0
 14 15  1  0  0  0  0
 14 13  2  0  0  0  0
 15 10  2  0  0  0  0
 16  8  1  0  0  0  0
 16 15  1  0  0  0  0
 17 22  1  0  0  0  0
 17 16  1  0  0  0  0
 18 17  1  0  0  0  0
 19 20  1  0  0  0  0
 19 18  1  0  0  0  0
 20 21  1  0  0  0  0
 21 22  1  0  0  0  0
 23 24  1  0  0  0  0
 25 23  2  0  0  0  0
 26  1  1  0  0  0  0
 27 26  1  0  0  0  0
 28 41  1  0  0  0  0
 28 33  1  0  0  0  0
 29 28  2  0  0  0  0
 30 29  1  0  0  0  0
 30 31  2  0  0  0  0
 31 32  1  0  0  0  0
 32 33  2  0  0  0  0
 32 27  1  0  0  0  0
 34 31  1  0  0  0  0
 35 34  1  0  0  0  0
 36 35  2  0  0  0  0
 37 39  2  0  0  0  0
 37 36  1  0  0  0  0
 38 37  1  0  0  0  0
 39 40  1  0  0  0  0
 40 34  2  0  0  0  0
 41 46  1  0  0  0  0
 42 41  1  0  0  0  0
 43 42  1  0  0  0  0
 44 42  2  0  0  0  0
 46 45  1  0  0  0  0
M  END
>  <minimizedAffinity>
-6.60297918

$$$$
