
 OpenBabel09122222393D

 46 51  0  0  0  0  0  0  0  0999 V2000
   10.1960    2.0140    2.8830 C   0  0  0  0  0  0  0  0  0  0  0  0
   10.4570    2.7550    1.7320 C   0  0  0  0  0  3  0  0  0  0  0  0
   10.5670    4.1490    1.8070 C   0  0  0  0  0  3  0  0  0  0  0  0
   10.4550    4.8130    3.0350 C   0  0  0  0  0  0  0  0  0  0  0  0
   10.2200    4.0500    4.1810 C   0  0  0  0  0  0  0  0  0  0  0  0
   10.0990    4.6370    5.3810 F   0  0  0  0  0  0  0  0  0  0  0  0
   10.1060    2.6640    4.1130 C   0  0  0  0  0  3  0  0  0  0  0  0
   10.5280    6.2740    3.0650 C   0  0  0  0  0  0  0  0  0  0  0  0
    9.6730    7.0450    2.4220 N   0  0  0  0  0  0  0  0  0  0  0  0
   10.0380    8.3380    2.6930 C   0  0  0  0  0  0  0  0  0  0  0  0
    9.4400    9.5380    2.2750 C   0  0  0  0  0  3  0  0  0  0  0  0
    9.9930   10.7730    2.6690 C   0  0  0  0  0  0  0  0  0  0  0  0
   11.1390   10.7690    3.4790 C   0  0  0  0  0  3  0  0  0  0  0  0
   11.7520    9.5830    3.9030 C   0  0  0  0  0  3  0  0  0  0  0  0
   11.1780    8.3740    3.4920 C   0  0  0  0  0  0  0  0  0  0  0  0
   11.5010    7.0440    3.6890 N   0  0  0  0  0  0  0  0  0  0  0  0
   12.7030    6.5380    4.3460 C   0  0  0  0  0  3  0  0  0  0  0  0
   13.9990    7.0830    3.7200 C   0  0  0  0  0  2  0  0  0  0  0  0
   15.2330    6.4740    4.3850 C   0  0  0  0  0  2  0  0  0  0  0  0
   15.2090    6.6640    5.8990 C   0  0  0  0  0  2  0  0  0  0  0  0
   13.9240    6.1170    6.5180 C   0  0  0  0  0  2  0  0  0  0  0  0
   12.6820    6.7250    5.8710 C   0  0  0  0  0  2  0  0  0  0  0  0
    9.3640   12.0790    2.2260 C   0  0  0  0  0  0  0  0  0  0  0  0
    8.1800   12.3190    2.6200 O   0  0  0  0  0  1  0  0  0  0  0  0
   10.0700   12.8380    1.4890 O   0  0  0  0  0  0  0  0  0  0  0  0
   10.0440    0.6560    2.9280 O   0  0  0  0  0  0  0  0  0  0  0  0
    8.9700    0.0920    2.1650 C   0  0  0  0  0  2  0  0  0  0  0  0
   10.5050   -1.8760   -0.7380 C   0  0  0  0  0  0  0  0  0  0  0  0
   10.1820   -3.1840   -0.3760 C   0  0  0  0  0  3  0  0  0  0  0  0
    9.4750   -3.4520    0.8010 C   0  0  0  0  0  3  0  0  0  0  0  0
    9.0700   -2.4190    1.6610 C   0  0  0  0  0  0  0  0  0  0  0  0
    9.4000   -1.0920    1.3180 C   0  0  0  0  0  0  0  0  0  0  0  0
   10.1250   -0.8450    0.1320 C   0  0  0  0  0  3  0  0  0  0  0  0
    8.3380   -2.7670    2.8850 C   0  0  0  0  0  0  0  0  0  0  0  0
    7.0940   -3.4130    2.8150 C   0  0  0  0  0  3  0  0  0  0  0  0
    6.3900   -3.7350    3.9790 C   0  0  0  0  0  3  0  0  0  0  0  0
    6.9270   -3.4090    5.2230 C   0  0  0  0  0  0  0  0  0  0  0  0
    6.0600   -3.8040    6.6550 Cl  0  0  0  0  0  0  0  0  0  0  0  0
    8.1570   -2.7630    5.3130 C   0  0  0  0  0  3  0  0  0  0  0  0
    8.8570   -2.4400    4.1480 C   0  0  0  0  0  3  0  0  0  0  0  0
   11.2560   -1.6000   -1.9240 N   0  0  0  0  0  0  0  0  0  0  0  0
   12.4710   -2.2010   -2.2640 C   0  0  0  0  0  0  0  0  0  0  0  0
   12.7810   -3.5680   -1.6960 C   0  0  0  0  0  1  0  0  0  0  0  0
   13.2620   -1.6880   -3.0610 O   0  0  0  0  0  0  0  0  0  0  0  0
   11.4340    0.7950   -2.5610 C   0  0  0  0  0  1  0  0  0  0  0  0
   10.7730   -0.5520   -2.8310 C   0  0  0  0  0  2  0  0  0  0  0  0
  1 26  1  0  0  0  0
  1  7  1  0  0  0  0
  2  3  1  0  0  0  0
  2  1  2  0  0  0  0
  3  4  2  0  0  0  0
  4  8  1  0  0  0  0
  4  5  1  0  0  0  0
  5  6  1  0  0  0  0
  7  5  2  0  0  0  0
  8 16  1  0  0  0  0
  9 10  1  0  0  0  0
  9  8  2  0  0  0  0
 10 15  1  0  0  0  0
 11 12  1  0  0  0  0
 11 10  2  0  0  0  0
 12 13  2  0  0  0  0
 13 14  1  0  0  0  0
 15 16  1  0  0  0  0
 15 14  2  0  0  0  0
 16 17  1  0  0  0  0
 17 22  1  0  0  0  0
 18 17  1  0  0  0  0
 18 19  1  0  0  0  0
 19 20  1  0  0  0  0
 20 21  1  0  0  0  0
 22 21  1  0  0  0  0
 23 24  1  0  0  0  0
 23 12  1  0  0  0  0
 25 23  2  0  0  0  0
 27 26  1  0  0  0  0
 28 29  2  0  0  0  0
 28 33  1  0  0  0  0
 29 30  1  0  0  0  0
 30 31  2  0  0  0  0
 31 34  1  0  0  0  0
 32 31  1  0  0  0  0
 32 27  1  0  0  0  0
 33 32  2  0  0  0  0
 34 40  1  0  0  0  0
 35 34  2  0  0  0  0
 35 36  1  0  0  0  0
 36 37  2  0  0  0  0
 37 39  1  0  0  0  0
 37 38  1  0  0  0  0
 40 39  2  0  0  0  0
 41 28  1  0  0  0  0
 42 41  1  0  0  0  0
 42 43  1  0  0  0  0
 44 42  2  0  0  0  0
 46 45  1  0  0  0  0
 46 41  1  0  0  0  0
M  END
>  <minimizedAffinity>
-6.8045373

$$$$
