
 OpenBabel09122222393D

 46 51  0  0  0  0  0  0  0  0999 V2000
   11.9050    5.2340    3.9150 C   0  0  0  0  0  0  0  0  0  0  0  0
   12.5800    4.2310    3.2210 C   0  0  0  0  0  3  0  0  0  0  0  0
   12.0470    2.9380    3.1640 C   0  0  0  0  0  3  0  0  0  0  0  0
   10.8180    2.6410    3.7670 C   0  0  0  0  0  0  0  0  0  0  0  0
   10.1440    3.6660    4.4350 C   0  0  0  0  0  0  0  0  0  0  0  0
    8.9660    3.4350    5.0330 F   0  0  0  0  0  0  0  0  0  0  0  0
   10.6700    4.9540    4.4980 C   0  0  0  0  0  3  0  0  0  0  0  0
   10.3160    1.2670    3.7280 C   0  0  0  0  0  0  0  0  0  0  0  0
    9.8040    0.7260    2.6400 N   0  0  0  0  0  0  0  0  0  0  0  0
    9.4620   -0.5600    2.9710 C   0  0  0  0  0  0  0  0  0  0  0  0
    8.9040   -1.5680    2.1690 C   0  0  0  0  0  3  0  0  0  0  0  0
    8.6220   -2.8320    2.7230 C   0  0  0  0  0  0  0  0  0  0  0  0
    8.9110   -3.0510    4.0790 C   0  0  0  0  0  3  0  0  0  0  0  0
    9.4630   -2.0580    4.8970 C   0  0  0  0  0  3  0  0  0  0  0  0
    9.7310   -0.8120    4.3140 C   0  0  0  0  0  0  0  0  0  0  0  0
   10.2410    0.3800    4.7930 N   0  0  0  0  0  0  0  0  0  0  0  0
   10.5490    0.6870    6.1870 C   0  0  0  0  0  3  0  0  0  0  0  0
    9.3180    0.5860    7.1060 C   0  0  0  0  0  2  0  0  0  0  0  0
    9.6650    0.9850    8.5400 C   0  0  0  0  0  2  0  0  0  0  0  0
   10.8450    0.1820    9.0790 C   0  0  0  0  0  2  0  0  0  0  0  0
   12.0660    0.2890    8.1690 C   0  0  0  0  0  2  0  0  0  0  0  0
   11.7380   -0.1180    6.7340 C   0  0  0  0  0  2  0  0  0  0  0  0
    8.0170   -3.9320    1.8740 C   0  0  0  0  0  0  0  0  0  0  0  0
    8.5110   -4.1140    0.7170 O   0  0  0  0  0  0  0  0  0  0  0  0
    7.0560   -4.5910    2.3840 O   0  0  0  0  0  1  0  0  0  0  0  0
   12.3400    6.5220    4.0580 O   0  0  0  0  0  0  0  0  0  0  0  0
   13.0630    7.0950    2.9620 C   0  0  0  0  0  2  0  0  0  0  0  0
   11.5550   10.4440    1.8810 C   0  0  0  0  0  0  0  0  0  0  0  0
   10.7240   10.0390    0.8350 C   0  0  0  0  0  3  0  0  0  0  0  0
   10.6400    8.6930    0.4620 C   0  0  0  0  0  3  0  0  0  0  0  0
   11.3890    7.7040    1.1200 C   0  0  0  0  0  0  0  0  0  0  0  0
   12.2450    8.0970    2.1690 C   0  0  0  0  0  0  0  0  0  0  0  0
   12.3240    9.4630    2.5200 C   0  0  0  0  0  3  0  0  0  0  0  0
   11.2620    6.3120    0.6740 C   0  0  0  0  0  0  0  0  0  0  0  0
   12.3300    5.6670    0.0300 C   0  0  0  0  0  3  0  0  0  0  0  0
   12.2070    4.3450   -0.4060 C   0  0  0  0  0  3  0  0  0  0  0  0
   11.0120    3.6580   -0.2020 C   0  0  0  0  0  0  0  0  0  0  0  0
   10.8610    2.0310   -0.7390 Cl  0  0  0  0  0  0  0  0  0  0  0  0
    9.9400    4.2820    0.4310 C   0  0  0  0  0  3  0  0  0  0  0  0
   10.0640    5.6040    0.8630 C   0  0  0  0  0  3  0  0  0  0  0  0
   11.6690   11.8220    2.2440 N   0  0  0  0  0  0  0  0  0  0  0  0
   10.8110   12.4970    3.1190 C   0  0  0  0  0  0  0  0  0  0  0  0
   10.0680   11.6900    4.1600 C   0  0  0  0  0  1  0  0  0  0  0  0
   10.6970   13.7260    3.1160 O   0  0  0  0  0  0  0  0  0  0  0  0
   14.0070   12.6450    2.4000 C   0  0  0  0  0  1  0  0  0  0  0  0
   12.7100   12.6330    1.6010 C   0  0  0  0  0  2  0  0  0  0  0  0
  1 26  1  0  0  0  0
  1  7  1  0  0  0  0
  2  1  2  0  0  0  0
  3  2  1  0  0  0  0
  3  4  2  0  0  0  0
  4  5  1  0  0  0  0
  5  7  2  0  0  0  0
  5  6  1  0  0  0  0
  8  4  1  0  0  0  0
  8 16  1  0  0  0  0
  9 10  1  0  0  0  0
  9  8  2  0  0  0  0
 10 15  1  0  0  0  0
 11 12  1  0  0  0  0
 11 10  2  0  0  0  0
 12 13  2  0  0  0  0
 13 14  1  0  0  0  0
 15 16  1  0  0  0  0
 15 14  2  0  0  0  0
 16 17  1  0  0  0  0
 17 22  1  0  0  0  0
 17 18  1  0  0  0  0
 18 19  1  0  0  0  0
 19 20  1  0  0  0  0
 21 20  1  0  0  0  0
 22 21  1  0  0  0  0
 23 25  1  0  0  0  0
 23 12  1  0  0  0  0
 24 23  2  0  0  0  0
 27 26  1  0  0  0  0
 28 41  1  0  0  0  0
 28 33  1  0  0  0  0
 29 28  2  0  0  0  0
 30 29  1  0  0  0  0
 30 31  2  0  0  0  0
 31 32  1  0  0  0  0
 32 33  2  0  0  0  0
 32 27  1  0  0  0  0
 34 40  1  0  0  0  0
 34 31  1  0  0  0  0
 35 34  2  0  0  0  0
 36 37  2  0  0  0  0
 36 35  1  0  0  0  0
 37 39  1  0  0  0  0
 38 37  1  0  0  0  0
 39 40  2  0  0  0  0
 41 42  1  0  0  0  0
 42 43  1  0  0  0  0
 44 42  2  0  0  0  0
 46 41  1  0  0  0  0
 46 45  1  0  0  0  0
M  END
>  <minimizedAffinity>
-7.02877569

$$$$
