
 OpenBabel09132204463D

 29 31  0  0  1  0  0  0  0  0999 V2000
    3.0170   -5.2410    8.2390 N   0  0  0  0  0  0  0  0  0  0  0  0
    2.2270   -4.4990    9.1190 C   0  0  0  0  0  0  0  0  0  0  0  0
    1.2030   -4.8970    9.6680 O   0  0  0  0  0  0  0  0  0  0  0  0
    2.6990   -3.1660    9.5430 C   0  0  0  0  0  0  0  0  0  0  0  0
    2.1950   -2.0460    8.8620 C   0  0  0  0  0  3  0  0  0  0  0  0
    2.6320   -0.7650    9.2030 C   0  0  0  0  0  3  0  0  0  0  0  0
    3.5830   -0.6090   10.2100 C   0  0  0  0  0  0  0  0  0  0  0  0
    4.1220    0.9710   10.6300 Cl  0  0  0  0  0  0  0  0  0  0  0  0
    4.1090   -1.7180   10.8710 C   0  0  0  0  0  3  0  0  0  0  0  0
    3.6780   -3.0050   10.5290 C   0  0  0  0  0  0  0  0  0  0  0  0
    4.3850   -4.3320   11.3770 Cl  0  0  0  0  0  0  0  0  0  0  0  0
    2.6890   -6.6940    8.0210 C   0  0  2  0  0  3  0  0  0  0  0  0
    4.3010   -7.6270    9.5550 O   0  0  0  0  0  1  0  0  0  0  0  0
    3.8190   -7.7090    8.3890 C   0  0  0  0  0  0  0  0  0  0  0  0
    4.2190   -8.4280    7.4230 O   0  0  0  0  0  0  0  0  0  0  0  0
    2.0760   -6.9890    6.6330 C   0  0  0  0  0  2  0  0  0  0  0  0
    0.5610   -7.1060    6.6280 C   0  0  0  0  0  0  0  0  0  0  0  0
   -0.1510   -6.9310    5.4350 C   0  0  0  0  0  3  0  0  0  0  0  0
   -1.5430   -7.0360    5.4150 C   0  0  0  0  0  3  0  0  0  0  0  0
   -2.2360   -7.3210    6.5900 C   0  0  0  0  0  3  0  0  0  0  0  0
   -1.5380   -7.5050    7.7830 C   0  0  0  0  0  3  0  0  0  0  0  0
   -0.1460   -7.4040    7.8020 C   0  0  0  0  0  3  0  0  0  0  0  0
    4.2040   -4.7300    7.5410 C   0  0  0  0  0  2  0  0  0  0  0  0
    3.9970   -4.2540    6.1280 C   0  0  0  0  0  0  0  0  0  0  0  0
    2.8330   -3.5990    5.7260 C   0  0  0  0  0  3  0  0  0  0  0  0
    2.6840   -3.1960    4.4020 C   0  0  0  0  0  3  0  0  0  0  0  0
    3.7060   -3.4760    3.5140 C   0  0  0  0  0  3  0  0  0  0  0  0
    4.8420   -4.1260    3.8510 N   0  0  0  0  0  0  0  0  0  0  0  0
    4.9520   -4.5040    5.1460 C   0  0  0  0  0  3  0  0  0  0  0  0
  1  2  1  0  0  0  0
  2  4  1  0  0  0  0
  2  3  2  0  0  0  0
  4 10  1  0  0  0  0
  5  6  1  0  0  0  0
  5  4  2  0  0  0  0
  6  7  2  0  0  0  0
  7  8  1  0  0  0  0
  7  9  1  0  0  0  0
 10  9  2  0  0  0  0
 10 11  1  0  0  0  0
 12 16  1  6  0  0  0
 12  1  1  0  0  0  0
 12 14  1  0  0  0  0
 14 13  1  0  0  0  0
 15 14  2  0  0  0  0
 17 16  1  0  0  0  0
 17 22  1  0  0  0  0
 18 17  2  0  0  0  0
 19 18  1  0  0  0  0
 19 20  2  0  0  0  0
 20 21  1  0  0  0  0
 21 22  2  0  0  0  0
 23  1  1  0  0  0  0
 24 23  1  0  0  0  0
 25 24  1  0  0  0  0
 26 25  2  0  0  0  0
 27 28  2  0  0  0  0
 27 26  1  0  0  0  0
 28 29  1  0  0  0  0
 29 24  2  0  0  0  0
M  END
>  <minimizedAffinity>
-6.36699295

$$$$
