
 OpenBabel09132200003D

 29 31  0  0  1  0  0  0  0  0999 V2000
    3.1300   -5.6150    4.8530 N   0  0  0  0  0  0  0  0  0  0  0  0
    2.9630   -6.8300    5.5200 C   0  0  0  0  0  0  0  0  0  0  0  0
    3.7960   -7.7300    5.5830 O   0  0  0  0  0  0  0  0  0  0  0  0
    1.7460   -7.0320    6.3310 C   0  0  0  0  0  0  0  0  0  0  0  0
    0.5410   -7.2760    5.6540 C   0  0  0  0  0  3  0  0  0  0  0  0
   -0.6430   -7.4430    6.3720 C   0  0  0  0  0  3  0  0  0  0  0  0
   -0.6230   -7.3500    7.7630 C   0  0  0  0  0  0  0  0  0  0  0  0
   -2.0840   -7.5550    8.6480 Cl  0  0  0  0  0  0  0  0  0  0  0  0
    0.5650   -7.0800    8.4410 C   0  0  0  0  0  3  0  0  0  0  0  0
    1.7540   -6.9060    7.7250 C   0  0  0  0  0  0  0  0  0  0  0  0
    3.1830   -6.5580    8.6280 Cl  0  0  0  0  0  0  0  0  0  0  0  0
    4.4740   -5.2930    4.2580 C   0  0  2  0  0  3  0  0  0  0  0  0
    6.2210   -3.6520    4.5390 O   0  0  0  0  0  0  0  0  0  0  0  0
    5.4200   -4.4200    5.1450 C   0  0  0  0  0  0  0  0  0  0  0  0
    5.3650   -4.6770    6.3870 O   0  0  0  0  0  1  0  0  0  0  0  0
    4.4000   -4.7730    2.8050 C   0  0  0  0  0  2  0  0  0  0  0  0
    4.6320   -5.8360    1.7440 C   0  0  0  0  0  0  0  0  0  0  0  0
    4.4870   -7.1910    2.0670 C   0  0  0  0  0  3  0  0  0  0  0  0
    4.6960   -8.1790    1.1030 C   0  0  0  0  0  3  0  0  0  0  0  0
    5.0500   -7.8190   -0.1970 C   0  0  0  0  0  3  0  0  0  0  0  0
    5.1890   -6.4730   -0.5320 C   0  0  0  0  0  3  0  0  0  0  0  0
    4.9750   -5.4850    0.4310 C   0  0  0  0  0  3  0  0  0  0  0  0
    2.1000   -4.5750    4.7340 C   0  0  0  0  0  2  0  0  0  0  0  0
    2.2120   -3.4080    5.6790 C   0  0  0  0  0  0  0  0  0  0  0  0
    2.5610   -3.5670    7.0200 C   0  0  0  0  0  3  0  0  0  0  0  0
    2.6320   -2.4580    7.8570 C   0  0  0  0  0  3  0  0  0  0  0  0
    2.3370   -1.2160    7.3240 C   0  0  0  0  0  3  0  0  0  0  0  0
    1.9740   -1.0140    6.0380 N   0  0  0  0  0  0  0  0  0  0  0  0
    1.9140   -2.1170    5.2540 C   0  0  0  0  0  3  0  0  0  0  0  0
  1  2  1  0  0  0  0
  2  3  2  0  0  0  0
  2  4  1  0  0  0  0
  4 10  1  0  0  0  0
  5  4  2  0  0  0  0
  5  6  1  0  0  0  0
  6  7  2  0  0  0  0
  7  9  1  0  0  0  0
  7  8  1  0  0  0  0
 10  9  2  0  0  0  0
 10 11  1  0  0  0  0
 12 16  1  6  0  0  0
 12  1  1  0  0  0  0
 12 14  1  0  0  0  0
 13 14  2  0  0  0  0
 14 15  1  0  0  0  0
 17 18  1  0  0  0  0
 17 16  1  0  0  0  0
 19 18  2  0  0  0  0
 20 19  1  0  0  0  0
 21 20  2  0  0  0  0
 21 22  1  0  0  0  0
 22 17  2  0  0  0  0
 23  1  1  0  0  0  0
 23 24  1  0  0  0  0
 24 25  1  0  0  0  0
 25 26  2  0  0  0  0
 27 26  1  0  0  0  0
 28 27  2  0  0  0  0
 29 24  2  0  0  0  0
 29 28  1  0  0  0  0
M  END
>  <minimizedAffinity>
-6.60806894

$$$$

 OpenBabel09132200003D

 29 31  0  0  1  0  0  0  0  0999 V2000
    3.4850   -4.0950    6.4850 N   0  0  0  0  0  0  0  0  0  0  0  0
    2.8930   -4.2910    5.2360 C   0  0  0  0  0  0  0  0  0  0  0  0
    1.8570   -3.7600    4.8460 O   0  0  0  0  0  0  0  0  0  0  0  0
    3.6110   -5.0990    4.2300 C   0  0  0  0  0  0  0  0  0  0  0  0
    4.3090   -4.4180    3.2200 C   0  0  0  0  0  3  0  0  0  0  0  0
    4.9780   -5.1330    2.2270 C   0  0  0  0  0  3  0  0  0  0  0  0
    4.9360   -6.5270    2.2380 C   0  0  0  0  0  0  0  0  0  0  0  0
    5.7610   -7.4100    1.0130 Cl  0  0  0  0  0  0  0  0  0  0  0  0
    4.2220   -7.2100    3.2220 C   0  0  0  0  0  3  0  0  0  0  0  0
    3.5450   -6.4960    4.2160 C   0  0  0  0  0  0  0  0  0  0  0  0
    2.6690   -7.4060    5.3920 Cl  0  0  0  0  0  0  0  0  0  0  0  0
    2.9030   -3.0580    7.4080 C   0  0  2  0  0  3  0  0  0  0  0  0
    4.2130   -1.0330    7.3180 O   0  0  0  0  0  1  0  0  0  0  0  0
    3.1180   -1.5700    6.9830 C   0  0  0  0  0  0  0  0  0  0  0  0
    2.1040   -1.0210    6.4520 O   0  0  0  0  0  0  0  0  0  0  0  0
    3.2470   -3.2900    8.8970 C   0  0  0  0  0  2  0  0  0  0  0  0
    2.1710   -4.0170    9.6850 C   0  0  0  0  0  0  0  0  0  0  0  0
    1.8550   -5.3470    9.3780 C   0  0  0  0  0  3  0  0  0  0  0  0
    0.8680   -6.0270   10.0950 C   0  0  0  0  0  3  0  0  0  0  0  0
    0.1890   -5.3830   11.1280 C   0  0  0  0  0  3  0  0  0  0  0  0
    0.5000   -4.0610   11.4470 C   0  0  0  0  0  3  0  0  0  0  0  0
    1.4900   -3.3830   10.7340 C   0  0  0  0  0  3  0  0  0  0  0  0
    4.6900   -4.7850    6.9610 C   0  0  0  0  0  2  0  0  0  0  0  0
    5.9640   -3.9830    6.9680 C   0  0  0  0  0  0  0  0  0  0  0  0
    6.4360   -3.3250    5.8330 C   0  0  0  0  0  3  0  0  0  0  0  0
    7.6300   -2.6120    5.8880 C   0  0  0  0  0  3  0  0  0  0  0  0
    8.3250   -2.5910    7.0840 C   0  0  0  0  0  3  0  0  0  0  0  0
    7.9190   -3.2290    8.2030 N   0  0  0  0  0  0  0  0  0  0  0  0
    6.7550   -3.9140    8.1120 C   0  0  0  0  0  3  0  0  0  0  0  0
  1 23  1  0  0  0  0
  1 12  1  0  0  0  0
  2  1  1  0  0  0  0
  3  2  2  0  0  0  0
  4  2  1  0  0  0  0
  5  4  2  0  0  0  0
  6  7  2  0  0  0  0
  6  5  1  0  0  0  0
  7  9  1  0  0  0  0
  8  7  1  0  0  0  0
  9 10  2  0  0  0  0
 10  4  1  0  0  0  0
 10 11  1  0  0  0  0
 12 16  1  1  0  0  0
 14 13  1  0  0  0  0
 14 12  1  0  0  0  0
 15 14  2  0  0  0  0
 16 17  1  0  0  0  0
 17 22  1  0  0  0  0
 18 17  2  0  0  0  0
 18 19  1  0  0  0  0
 19 20  2  0  0  0  0
 20 21  1  0  0  0  0
 22 21  2  0  0  0  0
 23 24  1  0  0  0  0
 24 29  1  0  0  0  0
 25 26  1  0  0  0  0
 25 24  2  0  0  0  0
 26 27  2  0  0  0  0
 27 28  1  0  0  0  0
 29 28  2  0  0  0  0
M  END
>  <minimizedAffinity>
-6.43528652

$$$$

 OpenBabel09132200003D

 29 31  0  0  1  0  0  0  0  0999 V2000
    3.0170   -5.2410    8.2390 N   0  0  0  0  0  0  0  0  0  0  0  0
    2.2270   -4.4990    9.1190 C   0  0  0  0  0  0  0  0  0  0  0  0
    1.2030   -4.8970    9.6680 O   0  0  0  0  0  0  0  0  0  0  0  0
    2.6990   -3.1660    9.5430 C   0  0  0  0  0  0  0  0  0  0  0  0
    2.1950   -2.0460    8.8620 C   0  0  0  0  0  3  0  0  0  0  0  0
    2.6320   -0.7650    9.2030 C   0  0  0  0  0  3  0  0  0  0  0  0
    3.5830   -0.6090   10.2100 C   0  0  0  0  0  0  0  0  0  0  0  0
    4.1220    0.9710   10.6300 Cl  0  0  0  0  0  0  0  0  0  0  0  0
    4.1090   -1.7180   10.8710 C   0  0  0  0  0  3  0  0  0  0  0  0
    3.6780   -3.0050   10.5290 C   0  0  0  0  0  0  0  0  0  0  0  0
    4.3850   -4.3320   11.3770 Cl  0  0  0  0  0  0  0  0  0  0  0  0
    2.6890   -6.6940    8.0210 C   0  0  2  0  0  3  0  0  0  0  0  0
    4.3010   -7.6270    9.5550 O   0  0  0  0  0  1  0  0  0  0  0  0
    3.8190   -7.7090    8.3890 C   0  0  0  0  0  0  0  0  0  0  0  0
    4.2190   -8.4280    7.4230 O   0  0  0  0  0  0  0  0  0  0  0  0
    2.0760   -6.9890    6.6330 C   0  0  0  0  0  2  0  0  0  0  0  0
    0.5610   -7.1060    6.6280 C   0  0  0  0  0  0  0  0  0  0  0  0
   -0.1510   -6.9310    5.4350 C   0  0  0  0  0  3  0  0  0  0  0  0
   -1.5430   -7.0360    5.4150 C   0  0  0  0  0  3  0  0  0  0  0  0
   -2.2360   -7.3210    6.5900 C   0  0  0  0  0  3  0  0  0  0  0  0
   -1.5380   -7.5050    7.7830 C   0  0  0  0  0  3  0  0  0  0  0  0
   -0.1460   -7.4040    7.8020 C   0  0  0  0  0  3  0  0  0  0  0  0
    4.2040   -4.7300    7.5410 C   0  0  0  0  0  2  0  0  0  0  0  0
    3.9970   -4.2540    6.1280 C   0  0  0  0  0  0  0  0  0  0  0  0
    2.8330   -3.5990    5.7260 C   0  0  0  0  0  3  0  0  0  0  0  0
    2.6840   -3.1960    4.4020 C   0  0  0  0  0  3  0  0  0  0  0  0
    3.7060   -3.4760    3.5140 C   0  0  0  0  0  3  0  0  0  0  0  0
    4.8420   -4.1260    3.8510 N   0  0  0  0  0  0  0  0  0  0  0  0
    4.9520   -4.5040    5.1460 C   0  0  0  0  0  3  0  0  0  0  0  0
  1  2  1  0  0  0  0
  2  4  1  0  0  0  0
  2  3  2  0  0  0  0
  4 10  1  0  0  0  0
  5  6  1  0  0  0  0
  5  4  2  0  0  0  0
  6  7  2  0  0  0  0
  7  8  1  0  0  0  0
  7  9  1  0  0  0  0
 10  9  2  0  0  0  0
 10 11  1  0  0  0  0
 12 16  1  6  0  0  0
 12  1  1  0  0  0  0
 12 14  1  0  0  0  0
 14 13  1  0  0  0  0
 15 14  2  0  0  0  0
 17 16  1  0  0  0  0
 17 22  1  0  0  0  0
 18 17  2  0  0  0  0
 19 18  1  0  0  0  0
 19 20  2  0  0  0  0
 20 21  1  0  0  0  0
 21 22  2  0  0  0  0
 23  1  1  0  0  0  0
 24 23  1  0  0  0  0
 25 24  1  0  0  0  0
 26 25  2  0  0  0  0
 27 28  2  0  0  0  0
 27 26  1  0  0  0  0
 28 29  1  0  0  0  0
 29 24  2  0  0  0  0
M  END
>  <minimizedAffinity>
-6.36699295

$$$$

 OpenBabel09132200003D

 29 31  0  0  1  0  0  0  0  0999 V2000
    2.3530   -4.9630    8.6120 N   0  0  0  0  0  0  0  0  0  0  0  0
    2.2310   -3.6630    9.1060 C   0  0  0  0  0  0  0  0  0  0  0  0
    1.2930   -3.2390    9.7760 O   0  0  0  0  0  0  0  0  0  0  0  0
    3.3620   -2.7310    8.9340 C   0  0  0  0  0  0  0  0  0  0  0  0
    4.4590   -2.8650    9.8000 C   0  0  0  0  0  3  0  0  0  0  0  0
    5.5410   -1.9890    9.7010 C   0  0  0  0  0  3  0  0  0  0  0  0
    5.5170   -0.9730    8.7470 C   0  0  0  0  0  0  0  0  0  0  0  0
    6.8510    0.1070    8.6250 Cl  0  0  0  0  0  0  0  0  0  0  0  0
    4.4190   -0.8160    7.9020 C   0  0  0  0  0  3  0  0  0  0  0  0
    3.3290   -1.6880    8.0020 C   0  0  0  0  0  0  0  0  0  0  0  0
    1.9990   -1.4240    6.9350 Cl  0  0  0  0  0  0  0  0  0  0  0  0
    1.3330   -5.9930    9.0200 C   0  0  2  0  0  3  0  0  0  0  0  0
    0.3150   -6.4060   11.1690 O   0  0  0  0  0  1  0  0  0  0  0  0
    1.3940   -6.4570   10.5110 C   0  0  0  0  0  0  0  0  0  0  0  0
    2.5610   -6.7160   10.9370 O   0  0  0  0  0  0  0  0  0  0  0  0
    1.2340   -7.1870    8.0460 C   0  0  0  0  0  2  0  0  0  0  0  0
   -0.0560   -7.2400    7.2450 C   0  0  0  0  0  0  0  0  0  0  0  0
   -0.0150   -7.1940    5.8450 C   0  0  0  0  0  3  0  0  0  0  0  0
   -1.1930   -7.2420    5.0970 C   0  0  0  0  0  3  0  0  0  0  0  0
   -2.4240   -7.3390    5.7420 C   0  0  0  0  0  3  0  0  0  0  0  0
   -2.4780   -7.3930    7.1350 C   0  0  0  0  0  3  0  0  0  0  0  0
   -1.3000   -7.3500    7.8830 C   0  0  0  0  0  3  0  0  0  0  0  0
    3.4500   -5.4380    7.7600 C   0  0  0  0  0  2  0  0  0  0  0  0
    3.5480   -4.8240    6.3890 C   0  0  0  0  0  0  0  0  0  0  0  0
    2.4380   -4.6770    5.5580 C   0  0  0  0  0  3  0  0  0  0  0  0
    2.5860   -4.1200    4.2910 C   0  0  0  0  0  3  0  0  0  0  0  0
    3.8520   -3.7360    3.8890 C   0  0  0  0  0  3  0  0  0  0  0  0
    4.9600   -3.8780    4.6490 N   0  0  0  0  0  0  0  0  0  0  0  0
    4.7780   -4.4250    5.8740 C   0  0  0  0  0  3  0  0  0  0  0  0
  1 12  1  0  0  0  0
  1  2  1  0  0  0  0
  2  3  2  0  0  0  0
  4  2  1  0  0  0  0
  4  5  1  0  0  0  0
  6  5  2  0  0  0  0
  7  6  1  0  0  0  0
  8  7  1  0  0  0  0
  9 10  1  0  0  0  0
  9  7  2  0  0  0  0
 10  4  2  0  0  0  0
 11 10  1  0  0  0  0
 12 16  1  6  0  0  0
 12 14  1  0  0  0  0
 14 15  2  0  0  0  0
 14 13  1  0  0  0  0
 17 22  1  0  0  0  0
 17 16  1  0  0  0  0
 18 17  2  0  0  0  0
 19 20  2  0  0  0  0
 19 18  1  0  0  0  0
 20 21  1  0  0  0  0
 21 22  2  0  0  0  0
 23  1  1  0  0  0  0
 24 23  1  0  0  0  0
 25 24  2  0  0  0  0
 26 25  1  0  0  0  0
 27 26  2  0  0  0  0
 27 28  1  0  0  0  0
 28 29  2  0  0  0  0
 29 24  1  0  0  0  0
M  END
>  <minimizedAffinity>
-6.32976198

$$$$

 OpenBabel09132200003D

 29 31  0  0  1  0  0  0  0  0999 V2000
    3.5900   -4.7760    5.7220 N   0  0  0  0  0  0  0  0  0  0  0  0
    3.3470   -3.4170    5.5180 C   0  0  0  0  0  0  0  0  0  0  0  0
    2.8970   -2.9190    4.4890 O   0  0  0  0  0  0  0  0  0  0  0  0
    3.5140   -2.4890    6.6540 C   0  0  0  0  0  0  0  0  0  0  0  0
    2.3540   -1.9970    7.2730 C   0  0  0  0  0  3  0  0  0  0  0  0
    2.4550   -1.0930    8.3310 C   0  0  0  0  0  3  0  0  0  0  0  0
    3.7130   -0.6710    8.7560 C   0  0  0  0  0  0  0  0  0  0  0  0
    3.8380    0.4450   10.0600 Cl  0  0  0  0  0  0  0  0  0  0  0  0
    4.8690   -1.1330    8.1270 C   0  0  0  0  0  3  0  0  0  0  0  0
    4.7720   -2.0360    7.0630 C   0  0  0  0  0  0  0  0  0  0  0  0
    6.2430   -2.5530    6.3220 Cl  0  0  0  0  0  0  0  0  0  0  0  0
    3.1610   -5.7570    4.6630 C   0  0  2  0  0  3  0  0  0  0  0  0
    0.8350   -5.9480    5.2780 O   0  0  0  0  0  1  0  0  0  0  0  0
    1.8830   -6.5950    4.9900 C   0  0  0  0  0  0  0  0  0  0  0  0
    2.0750   -7.8480    5.0540 O   0  0  0  0  0  0  0  0  0  0  0  0
    4.3120   -6.6400    4.1330 C   0  0  0  0  0  2  0  0  0  0  0  0
    4.3600   -6.7700    2.6200 C   0  0  0  0  0  0  0  0  0  0  0  0
    4.7990   -5.6940    1.8380 C   0  0  0  0  0  3  0  0  0  0  0  0
    4.8480   -5.8000    0.4470 C   0  0  0  0  0  3  0  0  0  0  0  0
    4.4600   -6.9850   -0.1760 C   0  0  0  0  0  3  0  0  0  0  0  0
    4.0280   -8.0650    0.5930 C   0  0  0  0  0  3  0  0  0  0  0  0
    3.9840   -7.9620    1.9840 C   0  0  0  0  0  3  0  0  0  0  0  0
    4.1870   -5.3500    6.9350 C   0  0  0  0  0  2  0  0  0  0  0  0
    3.2400   -6.0100    7.9000 C   0  0  0  0  0  0  0  0  0  0  0  0
    2.1820   -5.3230    8.4940 C   0  0  0  0  0  3  0  0  0  0  0  0
    1.3460   -5.9760    9.3950 C   0  0  0  0  0  3  0  0  0  0  0  0
    1.6060   -7.3030    9.6850 C   0  0  0  0  0  3  0  0  0  0  0  0
    2.6300   -8.0050    9.1520 N   0  0  0  0  0  0  0  0  0  0  0  0
    3.4230   -7.3370    8.2820 C   0  0  0  0  0  3  0  0  0  0  0  0
  1 23  1  0  0  0  0
  2  1  1  0  0  0  0
  2  4  1  0  0  0  0
  3  2  2  0  0  0  0
  4 10  2  0  0  0  0
  4  5  1  0  0  0  0
  5  6  2  0  0  0  0
  6  7  1  0  0  0  0
  7  8  1  0  0  0  0
  9  7  2  0  0  0  0
 10  9  1  0  0  0  0
 11 10  1  0  0  0  0
 12 16  1  1  0  0  0
 12 14  1  0  0  0  0
 12  1  1  0  0  0  0
 14 15  2  0  0  0  0
 14 13  1  0  0  0  0
 17 16  1  0  0  0  0
 18 17  2  0  0  0  0
 19 18  1  0  0  0  0
 20 19  2  0  0  0  0
 20 21  1  0  0  0  0
 21 22  2  0  0  0  0
 22 17  1  0  0  0  0
 23 24  1  0  0  0  0
 24 29  2  0  0  0  0
 24 25  1  0  0  0  0
 25 26  2  0  0  0  0
 26 27  1  0  0  0  0
 28 27  2  0  0  0  0
 29 28  1  0  0  0  0
M  END
>  <minimizedAffinity>
-6.32664776

$$$$

 OpenBabel09132200003D

 29 31  0  0  1  0  0  0  0  0999 V2000
    3.2350   -5.4660    5.4990 N   0  0  0  0  0  0  0  0  0  0  0  0
    3.0540   -6.6870    6.1500 C   0  0  0  0  0  0  0  0  0  0  0  0
    3.9050   -7.5650    6.2700 O   0  0  0  0  0  0  0  0  0  0  0  0
    1.7890   -6.9240    6.8740 C   0  0  0  0  0  0  0  0  0  0  0  0
    1.7030   -6.4810    8.2040 C   0  0  0  0  0  3  0  0  0  0  0  0
    0.5420   -6.7070    8.9420 C   0  0  0  0  0  3  0  0  0  0  0  0
   -0.5240   -7.3880    8.3560 C   0  0  0  0  0  0  0  0  0  0  0  0
   -1.9570   -7.6680    9.2670 Cl  0  0  0  0  0  0  0  0  0  0  0  0
   -0.4350   -7.8560    7.0450 C   0  0  0  0  0  3  0  0  0  0  0  0
    0.7300   -7.6360    6.3030 C   0  0  0  0  0  0  0  0  0  0  0  0
    0.7760   -8.2570    4.6930 Cl  0  0  0  0  0  0  0  0  0  0  0  0
    4.6090   -5.1060    5.0000 C   0  0  2  0  0  3  0  0  0  0  0  0
    5.7570   -4.6570    7.0750 O   0  0  0  0  0  1  0  0  0  0  0  0
    5.4560   -4.1890    5.9400 C   0  0  0  0  0  0  0  0  0  0  0  0
    5.6400   -3.0110    5.5020 O   0  0  0  0  0  0  0  0  0  0  0  0
    4.6280   -4.6110    3.5370 C   0  0  0  0  0  2  0  0  0  0  0  0
    4.7100   -5.7180    2.4990 C   0  0  0  0  0  0  0  0  0  0  0  0
    4.7200   -5.4000    1.1350 C   0  0  0  0  0  3  0  0  0  0  0  0
    4.7960   -6.4070    0.1710 C   0  0  0  0  0  3  0  0  0  0  0  0
    4.8640   -7.7430    0.5630 C   0  0  0  0  0  3  0  0  0  0  0  0
    4.8620   -8.0710    1.9180 C   0  0  0  0  0  3  0  0  0  0  0  0
    4.7910   -7.0640    2.8820 C   0  0  0  0  0  3  0  0  0  0  0  0
    2.1890   -4.4520    5.3090 C   0  0  0  0  0  2  0  0  0  0  0  0
    2.2590   -3.2420    6.2010 C   0  0  0  0  0  0  0  0  0  0  0  0
    2.0710   -1.9480    5.7170 C   0  0  0  0  0  3  0  0  0  0  0  0
    2.1640   -0.8610    6.5820 C   0  0  0  0  0  3  0  0  0  0  0  0
    2.4580   -1.1060    7.9110 C   0  0  0  0  0  3  0  0  0  0  0  0
    2.6690   -2.3380    8.4220 N   0  0  0  0  0  0  0  0  0  0  0  0
    2.5720   -3.3710    7.5520 C   0  0  0  0  0  3  0  0  0  0  0  0
  1  2  1  0  0  0  0
  2  3  2  0  0  0  0
  2  4  1  0  0  0  0
  4  5  1  0  0  0  0
  5  6  2  0  0  0  0
  7  6  1  0  0  0  0
  7  8  1  0  0  0  0
  9  7  2  0  0  0  0
 10  4  2  0  0  0  0
 10  9  1  0  0  0  0
 11 10  1  0  0  0  0
 12 16  1  6  0  0  0
 12  1  1  0  0  0  0
 12 14  1  0  0  0  0
 14 13  1  0  0  0  0
 15 14  2  0  0  0  0
 17 22  1  0  0  0  0
 17 16  1  0  0  0  0
 18 17  2  0  0  0  0
 19 20  2  0  0  0  0
 19 18  1  0  0  0  0
 20 21  1  0  0  0  0
 21 22  2  0  0  0  0
 23  1  1  0  0  0  0
 23 24  1  0  0  0  0
 24 29  1  0  0  0  0
 25 24  2  0  0  0  0
 25 26  1  0  0  0  0
 26 27  2  0  0  0  0
 27 28  1  0  0  0  0
 29 28  2  0  0  0  0
M  END
>  <minimizedAffinity>
-6.18860722

$$$$

 OpenBabel09132200003D

 29 31  0  0  1  0  0  0  0  0999 V2000
    4.0400   -4.5450    5.6740 N   0  0  0  0  0  0  0  0  0  0  0  0
    4.1020   -3.1760    5.4090 C   0  0  0  0  0  0  0  0  0  0  0  0
    3.7210   -2.6300    4.3770 O   0  0  0  0  0  0  0  0  0  0  0  0
    4.5410   -2.2650    6.4850 C   0  0  0  0  0  0  0  0  0  0  0  0
    5.9100   -2.2250    6.7910 C   0  0  0  0  0  3  0  0  0  0  0  0
    6.3740   -1.4050    7.8200 C   0  0  0  0  0  3  0  0  0  0  0  0
    5.4660   -0.6390    8.5510 C   0  0  0  0  0  0  0  0  0  0  0  0
    6.0370    0.3720    9.8210 Cl  0  0  0  0  0  0  0  0  0  0  0  0
    4.1010   -0.6960    8.2720 C   0  0  0  0  0  3  0  0  0  0  0  0
    3.6310   -1.5210    7.2440 C   0  0  0  0  0  0  0  0  0  0  0  0
    1.9280   -1.5530    6.9660 Cl  0  0  0  0  0  0  0  0  0  0  0  0
    3.3390   -5.4420    4.6890 C   0  0  2  0  0  3  0  0  0  0  0  0
    1.7540   -7.0860    5.4720 O   0  0  0  0  0  1  0  0  0  0  0  0
    1.8950   -5.8900    5.0850 C   0  0  0  0  0  0  0  0  0  0  0  0
    0.9930   -5.0290    4.8490 O   0  0  0  0  0  0  0  0  0  0  0  0
    4.2030   -6.6310    4.2100 C   0  0  0  0  0  2  0  0  0  0  0  0
    4.2890   -6.7770    2.7000 C   0  0  0  0  0  0  0  0  0  0  0  0
    4.7890   -5.7240    1.9220 C   0  0  0  0  0  3  0  0  0  0  0  0
    4.8740   -5.8450    0.5340 C   0  0  0  0  0  3  0  0  0  0  0  0
    4.4630   -7.0220   -0.0900 C   0  0  0  0  0  3  0  0  0  0  0  0
    3.9710   -8.0790    0.6750 C   0  0  0  0  0  3  0  0  0  0  0  0
    3.8900   -7.9600    2.0640 C   0  0  0  0  0  3  0  0  0  0  0  0
    4.5580   -5.1900    6.8870 C   0  0  0  0  0  2  0  0  0  0  0  0
    3.8220   -4.8990    8.1670 C   0  0  0  0  0  0  0  0  0  0  0  0
    2.4300   -4.9290    8.2490 C   0  0  0  0  0  3  0  0  0  0  0  0
    1.7980   -4.6330    9.4530 C   0  0  0  0  0  3  0  0  0  0  0  0
    2.5840   -4.3030   10.5410 C   0  0  0  0  0  3  0  0  0  0  0  0
    3.9330   -4.2400   10.5060 N   0  0  0  0  0  0  0  0  0  0  0  0
    4.5140   -4.5320    9.3180 C   0  0  0  0  0  3  0  0  0  0  0  0
  1 23  1  0  0  0  0
  2  1  1  0  0  0  0
  2  4  1  0  0  0  0
  3  2  2  0  0  0  0
  4  5  2  0  0  0  0
  4 10  1  0  0  0  0
  5  6  1  0  0  0  0
  6  7  2  0  0  0  0
  7  8  1  0  0  0  0
  9  7  1  0  0  0  0
 10  9  2  0  0  0  0
 11 10  1  0  0  0  0
 12 16  1  1  0  0  0
 12 14  1  0  0  0  0
 12  1  1  0  0  0  0
 14 13  1  0  0  0  0
 15 14  2  0  0  0  0
 17 16  1  0  0  0  0
 18 17  2  0  0  0  0
 19 18  1  0  0  0  0
 20 19  2  0  0  0  0
 20 21  1  0  0  0  0
 21 22  2  0  0  0  0
 22 17  1  0  0  0  0
 23 24  1  0  0  0  0
 24 25  2  0  0  0  0
 24 29  1  0  0  0  0
 25 26  1  0  0  0  0
 26 27  2  0  0  0  0
 28 27  1  0  0  0  0
 29 28  2  0  0  0  0
M  END
>  <minimizedAffinity>
-6.14846325

$$$$

 OpenBabel09132200003D

 29 31  0  0  1  0  0  0  0  0999 V2000
    3.9800   -3.4200    7.1200 N   0  0  0  0  0  0  0  0  0  0  0  0
    3.5170   -3.2780    5.8110 C   0  0  0  0  0  0  0  0  0  0  0  0
    2.8090   -2.3620    5.3990 O   0  0  0  0  0  0  0  0  0  0  0  0
    4.0020   -4.2190    4.7820 C   0  0  0  0  0  0  0  0  0  0  0  0
    5.0840   -3.8150    3.9830 C   0  0  0  0  0  3  0  0  0  0  0  0
    5.5610   -4.6530    2.9760 C   0  0  0  0  0  3  0  0  0  0  0  0
    4.9470   -5.8860    2.7590 C   0  0  0  0  0  0  0  0  0  0  0  0
    5.5350   -6.9200    1.5150 Cl  0  0  0  0  0  0  0  0  0  0  0  0
    3.8530   -6.2810    3.5290 C   0  0  0  0  0  3  0  0  0  0  0  0
    3.3680   -5.4410    4.5370 C   0  0  0  0  0  0  0  0  0  0  0  0
    2.0020   -5.9890    5.4390 Cl  0  0  0  0  0  0  0  0  0  0  0  0
    3.7150   -2.3140    8.1070 C   0  0  2  0  0  3  0  0  0  0  0  0
    1.6770   -1.0250    8.2020 O   0  0  0  0  0  0  0  0  0  0  0  0
    2.2220   -2.1190    8.5250 C   0  0  0  0  0  0  0  0  0  0  0  0
    1.7560   -3.0400    9.2640 O   0  0  0  0  0  1  0  0  0  0  0  0
    4.3910   -0.9750    7.7340 C   0  0  0  0  0  2  0  0  0  0  0  0
    5.5700   -0.6000    8.6160 C   0  0  0  0  0  0  0  0  0  0  0  0
    5.5520   -0.9130    9.9810 C   0  0  0  0  0  3  0  0  0  0  0  0
    6.6290   -0.5740   10.8030 C   0  0  0  0  0  3  0  0  0  0  0  0
    7.7360    0.0790   10.2650 C   0  0  0  0  0  3  0  0  0  0  0  0
    7.7690    0.3890    8.9060 C   0  0  0  0  0  3  0  0  0  0  0  0
    6.6950    0.0460    8.0840 C   0  0  0  0  0  3  0  0  0  0  0  0
    4.7730   -4.5530    7.6120 C   0  0  0  0  0  2  0  0  0  0  0  0
    6.0570   -4.2150    8.3200 C   0  0  0  0  0  0  0  0  0  0  0  0
    7.1210   -3.5850    7.6750 C   0  0  0  0  0  3  0  0  0  0  0  0
    8.2940   -3.3130    8.3710 C   0  0  0  0  0  3  0  0  0  0  0  0
    8.3710   -3.6930    9.6980 C   0  0  0  0  0  3  0  0  0  0  0  0
    7.3770   -4.3240   10.3610 N   0  0  0  0  0  0  0  0  0  0  0  0
    6.2510   -4.5750    9.6510 C   0  0  0  0  0  3  0  0  0  0  0  0
  1 23  1  0  0  0  0
  1 12  1  0  0  0  0
  2  1  1  0  0  0  0
  3  2  2  0  0  0  0
  4  2  1  0  0  0  0
  5  4  2  0  0  0  0
  6  5  1  0  0  0  0
  7  6  2  0  0  0  0
  7  9  1  0  0  0  0
  8  7  1  0  0  0  0
  9 10  2  0  0  0  0
 10  4  1  0  0  0  0
 10 11  1  0  0  0  0
 12 16  1  6  0  0  0
 12 14  1  0  0  0  0
 13 14  2  0  0  0  0
 14 15  1  0  0  0  0
 16 17  1  0  0  0  0
 17 18  1  0  0  0  0
 18 19  2  0  0  0  0
 20 19  1  0  0  0  0
 21 20  2  0  0  0  0
 22 17  2  0  0  0  0
 22 21  1  0  0  0  0
 23 24  1  0  0  0  0
 24 29  1  0  0  0  0
 25 24  2  0  0  0  0
 25 26  1  0  0  0  0
 26 27  2  0  0  0  0
 27 28  1  0  0  0  0
 29 28  2  0  0  0  0
M  END
>  <minimizedAffinity>
-6.10301399

$$$$

 OpenBabel09132200003D

 29 31  0  0  1  0  0  0  0  0999 V2000
    4.2970   -3.5200    6.2610 N   0  0  0  0  0  0  0  0  0  0  0  0
    5.6710   -3.3420    6.4300 C   0  0  0  0  0  0  0  0  0  0  0  0
    6.5410   -3.7140    5.6460 O   0  0  0  0  0  0  0  0  0  0  0  0
    6.1460   -2.5340    7.5710 C   0  0  0  0  0  0  0  0  0  0  0  0
    6.2130   -1.1420    7.4050 C   0  0  0  0  0  3  0  0  0  0  0  0
    6.6850   -0.3350    8.4400 C   0  0  0  0  0  3  0  0  0  0  0  0
    7.1020   -0.9230    9.6340 C   0  0  0  0  0  0  0  0  0  0  0  0
    7.6840    0.0720   10.9110 Cl  0  0  0  0  0  0  0  0  0  0  0  0
    7.0650   -2.3070    9.7960 C   0  0  0  0  0  3  0  0  0  0  0  0
    6.5980   -3.1210    8.7580 C   0  0  0  0  0  0  0  0  0  0  0  0
    6.5960   -4.8260    9.0230 Cl  0  0  0  0  0  0  0  0  0  0  0  0
    3.7950   -4.0980    4.9650 C   0  0  2  0  0  3  0  0  0  0  0  0
    1.4500   -4.5760    4.6560 O   0  0  0  0  0  1  0  0  0  0  0  0
    2.3440   -3.6880    4.5540 C   0  0  0  0  0  0  0  0  0  0  0  0
    2.2480   -2.5330    4.0360 O   0  0  0  0  0  0  0  0  0  0  0  0
    4.0260   -5.6200    4.8340 C   0  0  0  0  0  2  0  0  0  0  0  0
    4.2550   -6.1020    3.4120 C   0  0  0  0  0  0  0  0  0  0  0  0
    3.9450   -7.4220    3.0600 C   0  0  0  0  0  3  0  0  0  0  0  0
    4.1500   -7.8770    1.7570 C   0  0  0  0  0  3  0  0  0  0  0  0
    4.6670   -7.0160    0.7910 C   0  0  0  0  0  3  0  0  0  0  0  0
    4.9740   -5.6980    1.1270 C   0  0  0  0  0  3  0  0  0  0  0  0
    4.7630   -5.2400    2.4290 C   0  0  0  0  0  3  0  0  0  0  0  0
    3.2730   -3.1260    7.2370 C   0  0  0  0  0  2  0  0  0  0  0  0
    2.9610   -4.1240    8.3200 C   0  0  0  0  0  0  0  0  0  0  0  0
    2.4130   -5.3760    8.0440 C   0  0  0  0  0  3  0  0  0  0  0  0
    2.1250   -6.2540    9.0840 C   0  0  0  0  0  3  0  0  0  0  0  0
    2.3850   -5.8430   10.3790 C   0  0  0  0  0  3  0  0  0  0  0  0
    2.8950   -4.6330   10.6980 N   0  0  0  0  0  0  0  0  0  0  0  0
    3.1610   -3.8040    9.6600 C   0  0  0  0  0  3  0  0  0  0  0  0
  1  2  1  0  0  0  0
  1 23  1  0  0  0  0
  2  4  1  0  0  0  0
  3  2  2  0  0  0  0
  4 10  1  0  0  0  0
  5  4  2  0  0  0  0
  5  6  1  0  0  0  0
  6  7  2  0  0  0  0
  7  9  1  0  0  0  0
  7  8  1  0  0  0  0
 10 11  1  0  0  0  0
 10  9  2  0  0  0  0
 12 16  1  1  0  0  0
 12  1  1  0  0  0  0
 14 13  1  0  0  0  0
 14 12  1  0  0  0  0
 15 14  2  0  0  0  0
 17 16  1  0  0  0  0
 18 17  1  0  0  0  0
 19 18  2  0  0  0  0
 20 21  2  0  0  0  0
 20 19  1  0  0  0  0
 21 22  1  0  0  0  0
 22 17  2  0  0  0  0
 23 24  1  0  0  0  0
 24 29  1  0  0  0  0
 25 24  2  0  0  0  0
 25 26  1  0  0  0  0
 26 27  2  0  0  0  0
 27 28  1  0  0  0  0
 29 28  2  0  0  0  0
M  END
>  <minimizedAffinity>
-6.03933048

$$$$

 OpenBabel09132200003D

 29 31  0  0  1  0  0  0  0  0999 V2000
    2.4190   -5.2880    7.1180 N   0  0  0  0  0  0  0  0  0  0  0  0
    2.6600   -5.0850    8.4780 C   0  0  0  0  0  0  0  0  0  0  0  0
    2.6380   -5.9560    9.3450 O   0  0  0  0  0  0  0  0  0  0  0  0
    3.1030   -3.7510    8.9280 C   0  0  0  0  0  0  0  0  0  0  0  0
    2.1290   -2.7480    9.0630 C   0  0  0  0  0  3  0  0  0  0  0  0
    2.4980   -1.4620    9.4550 C   0  0  0  0  0  3  0  0  0  0  0  0
    3.8410   -1.1760    9.6970 C   0  0  0  0  0  0  0  0  0  0  0  0
    4.2970    0.4110   10.1800 Cl  0  0  0  0  0  0  0  0  0  0  0  0
    4.8180   -2.1580    9.5370 C   0  0  0  0  0  3  0  0  0  0  0  0
    4.4520   -3.4490    9.1390 C   0  0  0  0  0  0  0  0  0  0  0  0
    5.7150   -4.6090    8.9460 Cl  0  0  0  0  0  0  0  0  0  0  0  0
    2.2390   -6.6950    6.6160 C   0  0  2  0  0  3  0  0  0  0  0  0
    3.7780   -7.6240    5.0050 O   0  0  0  0  0  0  0  0  0  0  0  0
    3.5510   -7.4550    6.2380 C   0  0  0  0  0  0  0  0  0  0  0  0
    4.1860   -7.9360    7.2260 O   0  0  0  0  0  1  0  0  0  0  0  0
    1.1570   -6.8290    5.5220 C   0  0  0  0  0  2  0  0  0  0  0  0
   -0.2470   -7.0710    6.0520 C   0  0  0  0  0  0  0  0  0  0  0  0
   -0.4410   -7.3890    7.4020 C   0  0  0  0  0  3  0  0  0  0  0  0
   -1.7240   -7.6130    7.9030 C   0  0  0  0  0  3  0  0  0  0  0  0
   -2.8280   -7.5180    7.0570 C   0  0  0  0  0  3  0  0  0  0  0  0
   -2.6480   -7.1940    5.7130 C   0  0  0  0  0  3  0  0  0  0  0  0
   -1.3650   -6.9650    5.2130 C   0  0  0  0  0  3  0  0  0  0  0  0
    2.3860   -4.2260    6.1040 C   0  0  0  0  0  2  0  0  0  0  0  0
    3.5350   -4.1910    5.1330 C   0  0  0  0  0  0  0  0  0  0  0  0
    3.3560   -4.3650    3.7610 C   0  0  0  0  0  3  0  0  0  0  0  0
    4.4540   -4.3430    2.9070 C   0  0  0  0  0  3  0  0  0  0  0  0
    5.7090   -4.1600    3.4600 C   0  0  0  0  0  3  0  0  0  0  0  0
    5.9350   -4.0080    4.7830 N   0  0  0  0  0  0  0  0  0  0  0  0
    4.8430   -4.0370    5.5830 C   0  0  0  0  0  3  0  0  0  0  0  0
  1  2  1  0  0  0  0
  2  4  1  0  0  0  0
  2  3  2  0  0  0  0
  4  5  2  0  0  0  0
  4 10  1  0  0  0  0
  5  6  1  0  0  0  0
  6  7  2  0  0  0  0
  7  8  1  0  0  0  0
  9  7  1  0  0  0  0
 10  9  2  0  0  0  0
 11 10  1  0  0  0  0
 12 16  1  6  0  0  0
 12  1  1  0  0  0  0
 13 14  2  0  0  0  0
 14 12  1  0  0  0  0
 14 15  1  0  0  0  0
 16 17  1  0  0  0  0
 17 18  1  0  0  0  0
 18 19  2  0  0  0  0
 20 19  1  0  0  0  0
 21 20  2  0  0  0  0
 22 21  1  0  0  0  0
 22 17  2  0  0  0  0
 23  1  1  0  0  0  0
 24 29  1  0  0  0  0
 24 23  1  0  0  0  0
 25 24  2  0  0  0  0
 26 27  2  0  0  0  0
 26 25  1  0  0  0  0
 27 28  1  0  0  0  0
 28 29  2  0  0  0  0
M  END
>  <minimizedAffinity>
-6.03448439

$$$$
