
 OpenBabel09132204463D

 29 31  0  0  1  0  0  0  0  0999 V2000
    2.3530   -4.9630    8.6120 N   0  0  0  0  0  0  0  0  0  0  0  0
    2.2310   -3.6630    9.1060 C   0  0  0  0  0  0  0  0  0  0  0  0
    1.2930   -3.2390    9.7760 O   0  0  0  0  0  0  0  0  0  0  0  0
    3.3620   -2.7310    8.9340 C   0  0  0  0  0  0  0  0  0  0  0  0
    4.4590   -2.8650    9.8000 C   0  0  0  0  0  3  0  0  0  0  0  0
    5.5410   -1.9890    9.7010 C   0  0  0  0  0  3  0  0  0  0  0  0
    5.5170   -0.9730    8.7470 C   0  0  0  0  0  0  0  0  0  0  0  0
    6.8510    0.1070    8.6250 Cl  0  0  0  0  0  0  0  0  0  0  0  0
    4.4190   -0.8160    7.9020 C   0  0  0  0  0  3  0  0  0  0  0  0
    3.3290   -1.6880    8.0020 C   0  0  0  0  0  0  0  0  0  0  0  0
    1.9990   -1.4240    6.9350 Cl  0  0  0  0  0  0  0  0  0  0  0  0
    1.3330   -5.9930    9.0200 C   0  0  2  0  0  3  0  0  0  0  0  0
    0.3150   -6.4060   11.1690 O   0  0  0  0  0  1  0  0  0  0  0  0
    1.3940   -6.4570   10.5110 C   0  0  0  0  0  0  0  0  0  0  0  0
    2.5610   -6.7160   10.9370 O   0  0  0  0  0  0  0  0  0  0  0  0
    1.2340   -7.1870    8.0460 C   0  0  0  0  0  2  0  0  0  0  0  0
   -0.0560   -7.2400    7.2450 C   0  0  0  0  0  0  0  0  0  0  0  0
   -0.0150   -7.1940    5.8450 C   0  0  0  0  0  3  0  0  0  0  0  0
   -1.1930   -7.2420    5.0970 C   0  0  0  0  0  3  0  0  0  0  0  0
   -2.4240   -7.3390    5.7420 C   0  0  0  0  0  3  0  0  0  0  0  0
   -2.4780   -7.3930    7.1350 C   0  0  0  0  0  3  0  0  0  0  0  0
   -1.3000   -7.3500    7.8830 C   0  0  0  0  0  3  0  0  0  0  0  0
    3.4500   -5.4380    7.7600 C   0  0  0  0  0  2  0  0  0  0  0  0
    3.5480   -4.8240    6.3890 C   0  0  0  0  0  0  0  0  0  0  0  0
    2.4380   -4.6770    5.5580 C   0  0  0  0  0  3  0  0  0  0  0  0
    2.5860   -4.1200    4.2910 C   0  0  0  0  0  3  0  0  0  0  0  0
    3.8520   -3.7360    3.8890 C   0  0  0  0  0  3  0  0  0  0  0  0
    4.9600   -3.8780    4.6490 N   0  0  0  0  0  0  0  0  0  0  0  0
    4.7780   -4.4250    5.8740 C   0  0  0  0  0  3  0  0  0  0  0  0
  1 12  1  0  0  0  0
  1  2  1  0  0  0  0
  2  3  2  0  0  0  0
  4  2  1  0  0  0  0
  4  5  1  0  0  0  0
  6  5  2  0  0  0  0
  7  6  1  0  0  0  0
  8  7  1  0  0  0  0
  9 10  1  0  0  0  0
  9  7  2  0  0  0  0
 10  4  2  0  0  0  0
 11 10  1  0  0  0  0
 12 16  1  6  0  0  0
 12 14  1  0  0  0  0
 14 15  2  0  0  0  0
 14 13  1  0  0  0  0
 17 22  1  0  0  0  0
 17 16  1  0  0  0  0
 18 17  2  0  0  0  0
 19 20  2  0  0  0  0
 19 18  1  0  0  0  0
 20 21  1  0  0  0  0
 21 22  2  0  0  0  0
 23  1  1  0  0  0  0
 24 23  1  0  0  0  0
 25 24  2  0  0  0  0
 26 25  1  0  0  0  0
 27 26  2  0  0  0  0
 27 28  1  0  0  0  0
 28 29  2  0  0  0  0
 29 24  1  0  0  0  0
M  END
>  <minimizedAffinity>
-6.32976198

$$$$
