
 OpenBabel09132204463D

 29 31  0  0  1  0  0  0  0  0999 V2000
    3.4850   -4.0950    6.4850 N   0  0  0  0  0  0  0  0  0  0  0  0
    2.8930   -4.2910    5.2360 C   0  0  0  0  0  0  0  0  0  0  0  0
    1.8570   -3.7600    4.8460 O   0  0  0  0  0  0  0  0  0  0  0  0
    3.6110   -5.0990    4.2300 C   0  0  0  0  0  0  0  0  0  0  0  0
    4.3090   -4.4180    3.2200 C   0  0  0  0  0  3  0  0  0  0  0  0
    4.9780   -5.1330    2.2270 C   0  0  0  0  0  3  0  0  0  0  0  0
    4.9360   -6.5270    2.2380 C   0  0  0  0  0  0  0  0  0  0  0  0
    5.7610   -7.4100    1.0130 Cl  0  0  0  0  0  0  0  0  0  0  0  0
    4.2220   -7.2100    3.2220 C   0  0  0  0  0  3  0  0  0  0  0  0
    3.5450   -6.4960    4.2160 C   0  0  0  0  0  0  0  0  0  0  0  0
    2.6690   -7.4060    5.3920 Cl  0  0  0  0  0  0  0  0  0  0  0  0
    2.9030   -3.0580    7.4080 C   0  0  2  0  0  3  0  0  0  0  0  0
    4.2130   -1.0330    7.3180 O   0  0  0  0  0  1  0  0  0  0  0  0
    3.1180   -1.5700    6.9830 C   0  0  0  0  0  0  0  0  0  0  0  0
    2.1040   -1.0210    6.4520 O   0  0  0  0  0  0  0  0  0  0  0  0
    3.2470   -3.2900    8.8970 C   0  0  0  0  0  2  0  0  0  0  0  0
    2.1710   -4.0170    9.6850 C   0  0  0  0  0  0  0  0  0  0  0  0
    1.8550   -5.3470    9.3780 C   0  0  0  0  0  3  0  0  0  0  0  0
    0.8680   -6.0270   10.0950 C   0  0  0  0  0  3  0  0  0  0  0  0
    0.1890   -5.3830   11.1280 C   0  0  0  0  0  3  0  0  0  0  0  0
    0.5000   -4.0610   11.4470 C   0  0  0  0  0  3  0  0  0  0  0  0
    1.4900   -3.3830   10.7340 C   0  0  0  0  0  3  0  0  0  0  0  0
    4.6900   -4.7850    6.9610 C   0  0  0  0  0  2  0  0  0  0  0  0
    5.9640   -3.9830    6.9680 C   0  0  0  0  0  0  0  0  0  0  0  0
    6.4360   -3.3250    5.8330 C   0  0  0  0  0  3  0  0  0  0  0  0
    7.6300   -2.6120    5.8880 C   0  0  0  0  0  3  0  0  0  0  0  0
    8.3250   -2.5910    7.0840 C   0  0  0  0  0  3  0  0  0  0  0  0
    7.9190   -3.2290    8.2030 N   0  0  0  0  0  0  0  0  0  0  0  0
    6.7550   -3.9140    8.1120 C   0  0  0  0  0  3  0  0  0  0  0  0
  1 23  1  0  0  0  0
  1 12  1  0  0  0  0
  2  1  1  0  0  0  0
  3  2  2  0  0  0  0
  4  2  1  0  0  0  0
  5  4  2  0  0  0  0
  6  7  2  0  0  0  0
  6  5  1  0  0  0  0
  7  9  1  0  0  0  0
  8  7  1  0  0  0  0
  9 10  2  0  0  0  0
 10  4  1  0  0  0  0
 10 11  1  0  0  0  0
 12 16  1  1  0  0  0
 14 13  1  0  0  0  0
 14 12  1  0  0  0  0
 15 14  2  0  0  0  0
 16 17  1  0  0  0  0
 17 22  1  0  0  0  0
 18 17  2  0  0  0  0
 18 19  1  0  0  0  0
 19 20  2  0  0  0  0
 20 21  1  0  0  0  0
 22 21  2  0  0  0  0
 23 24  1  0  0  0  0
 24 29  1  0  0  0  0
 25 26  1  0  0  0  0
 25 24  2  0  0  0  0
 26 27  2  0  0  0  0
 27 28  1  0  0  0  0
 29 28  2  0  0  0  0
M  END
>  <minimizedAffinity>
-6.43528652

$$$$
