
 OpenBabel09122223363D

 29 30  0  0  1  0  0  0  0  0999 V2000
    1.7100    3.1590   -6.0550 C   0  0  0  0  0  0  0  0  0  0  0  0
    0.8160    4.1270   -5.6080 C   0  0  0  0  0  3  0  0  0  0  0  0
    0.6000    5.2770   -6.3570 C   0  0  0  0  0  3  0  0  0  0  0  0
    1.2700    5.5080   -7.5700 C   0  0  0  0  0  0  0  0  0  0  0  0
    1.0940    6.7060   -8.3070 C   0  0  0  0  0  0  0  0  0  0  0  0
    1.7410    6.9020   -9.5220 C   0  0  0  0  0  0  0  0  0  0  0  0
    1.5570    8.0160  -10.2450 F   0  0  0  0  0  0  0  0  0  0  0  0
    2.5940    5.9320  -10.0200 C   0  0  0  0  0  3  0  0  0  0  0  0
    2.7970    4.7540   -9.2990 C   0  0  0  0  0  3  0  0  0  0  0  0
    2.1520    4.5040   -8.0600 C   0  0  0  0  0  0  0  0  0  0  0  0
    2.3570    3.3090   -7.2950 C   0  0  0  0  0  0  0  0  0  0  0  0
    0.1820    7.7700   -7.8590 C   0  0  0  0  0  0  0  0  0  0  0  0
    0.5680    8.5090   -6.9550 O   0  0  0  0  0  0  0  0  0  0  0  0
   -1.0430    7.8680   -8.4550 N   0  0  0  0  0  0  0  0  0  0  0  0
   -1.6380    8.6600   -8.1940 H   0  0  0  0  0  0  0  0  0  0  0  0
   -1.5910    7.1040   -9.6030 C   0  0  2  0  0  3  0  0  0  0  0  0
   -2.9080    7.6540  -10.2580 C   0  0  0  0  0  0  0  0  0  0  0  0
   -2.9100    8.9110  -10.4640 O   0  0  0  0  0  0  0  0  0  0  0  0
   -3.8740    6.8490  -10.3980 O   0  0  0  0  0  1  0  0  0  0  0  0
   -1.7100    5.6130   -9.2770 C   0  0  0  0  0  2  0  0  0  0  0  0
   -2.5420    5.1850   -8.0670 C   0  0  0  0  0  0  0  0  0  0  0  0
   -2.4530    3.9550   -7.7680 O   0  0  0  0  0  0  0  0  0  0  0  0
   -3.1150    6.1080   -7.4200 O   0  0  0  0  0  1  0  0  0  0  0  0
    3.2860    2.2360   -7.8100 C   0  0  0  0  0  0  0  0  0  0  0  0
    3.5590    2.2390   -9.1480 F   0  0  0  0  0  0  0  0  0  0  0  0
    4.5200    2.2930   -7.2150 F   0  0  0  0  0  0  0  0  0  0  0  0
    2.8320    0.9710   -7.5540 F   0  0  0  0  0  0  0  0  0  0  0  0
    1.1070    1.9190   -4.1670 C   0  0  0  0  0  1  0  0  0  0  0  0
    1.9420    2.0240   -5.3210 O   0  0  0  0  0  0  0  0  0  0  0  0
  1  2  1  0  0  0  0
  1 29  1  0  0  0  0
  3  2  2  0  0  0  0
  4  3  1  0  0  0  0
  5 12  1  0  0  0  0
  5  4  2  0  0  0  0
  6  5  1  0  0  0  0
  7  6  1  0  0  0  0
  8  6  2  0  0  0  0
  8  9  1  0  0  0  0
  9 10  2  0  0  0  0
 10  4  1  0  0  0  0
 10 11  1  0  0  0  0
 11  1  2  0  0  0  0
 12 13  2  0  0  0  0
 14 15  1  0  0  0  0
 14 12  1  0  0  0  0
 16 20  1  1  0  0  0
 16 14  1  0  0  0  0
 17 16  1  0  0  0  0
 18 17  2  0  0  0  0
 19 17  1  0  0  0  0
 20 21  1  0  0  0  0
 21 22  2  0  0  0  0
 21 23  1  0  0  0  0
 24 27  1  0  0  0  0
 24 11  1  0  0  0  0
 24 26  1  0  0  0  0
 25 24  1  0  0  0  0
 29 28  1  0  0  0  0
M  END
>  <minimizedAffinity>
47.1176224

$$$$
