
 OpenBabel09132204463D

 23 24  0  0  0  0  0  0  0  0999 V2000
    4.8760   -4.5010    2.7360 C   0  0  0  0  0  0  0  0  0  0  0  0
    4.2620   -4.2810    1.6250 N   0  0  0  0  0  0  0  0  0  0  0  0
    4.0920   -5.3580    0.7800 C   0  0  0  0  0  0  0  0  0  0  0  0
    4.5160   -6.6060    1.0500 C   0  0  0  0  0  0  0  0  0  0  0  0
    5.2100   -6.8220    2.3350 C   0  0  0  0  0  0  0  0  0  0  0  0
    5.6410   -7.9140    2.6830 O   0  0  0  0  0  0  0  0  0  0  0  0
    5.3440   -5.7150    3.1200 N   0  0  0  0  0  0  0  0  0  0  0  0
    5.8060   -5.8110    4.0120 H   0  0  0  0  0  0  0  0  0  0  0  0
    3.3920   -5.0680   -0.4850 C   0  0  0  0  0  0  0  0  0  0  0  0
    2.4840   -5.9950   -1.0160 C   0  0  0  0  0  3  0  0  0  0  0  0
    1.8260   -5.7260   -2.2180 C   0  0  0  0  0  3  0  0  0  0  0  0
    2.0690   -4.5260   -2.8870 C   0  0  0  0  0  0  0  0  0  0  0  0
    1.1740   -4.1610   -4.5110 Br  0  0  0  0  0  0  0  0  0  0  0  0
    2.9630   -3.5940   -2.3640 C   0  0  0  0  0  3  0  0  0  0  0  0
    3.6230   -3.8640   -1.1630 C   0  0  0  0  0  3  0  0  0  0  0  0
    4.3230   -7.7920    0.1180 C   0  0  0  0  0  2  0  0  0  0  0  0
    4.1630   -8.7750   -0.6550 N   0  0  0  0  0  1  0  0  0  0  0  0
    5.1710   -3.2760    3.9220 S   0  0  0  0  0  0  0  0  0  0  0  0
    3.4870   -2.9280    4.5210 C   0  0  0  0  0  2  0  0  0  0  0  0
    2.7470   -1.9140    3.6450 C   0  0  0  0  0  3  0  0  0  0  0  0
    1.2710   -1.6770    3.9830 C   0  0  0  0  0  3  0  0  0  0  0  0
   -0.8010   -0.2350    3.5950 C   0  0  0  0  0  1  0  0  0  0  0  0
    0.5230   -0.7350    3.0370 C   0  0  0  0  0  2  0  0  0  0  0  0
  1  7  1  0  0  0  0
  1 18  1  0  0  0  0
  2  1  2  0  0  0  0
  3  4  2  0  0  0  0
  3  2  1  0  0  0  0
  4  5  1  0  0  0  0
  5  6  2  0  0  0  0
  5  7  1  0  0  0  0
  7  8  1  0  0  0  0
  9  3  1  0  0  0  0
 10  9  1  0  0  0  0
 11 10  2  0  0  0  0
 12 14  2  0  0  0  0
 12 11  1  0  0  0  0
 13 12  1  0  0  0  0
 14 15  1  0  0  0  0
 15  9  2  0  0  0  0
 16  4  1  0  0  0  0
 17 16  1  0  0  0  0
 18 19  1  0  0  0  0
 20 21  2  0  0  0  0
 20 19  1  0  0  0  0
 23 22  1  0  0  0  0
 23 21  1  0  0  0  0
M  END
>  <minimizedAffinity>
26.3442211

$$$$
