
 OpenBabel09132204463D

 23 24  0  0  0  0  0  0  0  0999 V2000
    4.3540   -7.4980    1.6830 C   0  0  0  0  0  0  0  0  0  0  0  0
    3.5120   -7.6020    0.7130 N   0  0  0  0  0  0  0  0  0  0  0  0
    3.3550   -6.4980   -0.1000 C   0  0  0  0  0  0  0  0  0  0  0  0
    4.0260   -5.3430    0.0550 C   0  0  0  0  0  0  0  0  0  0  0  0
    4.9870   -5.2620    1.1730 C   0  0  0  0  0  0  0  0  0  0  0  0
    5.6500   -4.2600    1.4100 O   0  0  0  0  0  0  0  0  0  0  0  0
    5.0910   -6.3880    1.9360 N   0  0  0  0  0  0  0  0  0  0  0  0
    5.7390   -6.3860    2.7090 H   0  0  0  0  0  0  0  0  0  0  0  0
    2.3790   -6.6500   -1.1940 C   0  0  0  0  0  0  0  0  0  0  0  0
    2.2590   -5.6550   -2.1740 C   0  0  0  0  0  3  0  0  0  0  0  0
    1.3290   -5.7930   -3.2080 C   0  0  0  0  0  3  0  0  0  0  0  0
    0.5240   -6.9300   -3.2660 C   0  0  0  0  0  0  0  0  0  0  0  0
   -0.7300   -7.1190   -4.6680 Br  0  0  0  0  0  0  0  0  0  0  0  0
    0.6400   -7.9300   -2.3020 C   0  0  0  0  0  3  0  0  0  0  0  0
    1.5680   -7.7910   -1.2680 C   0  0  0  0  0  3  0  0  0  0  0  0
    3.8540   -4.1300   -0.8460 C   0  0  0  0  0  2  0  0  0  0  0  0
    3.7100   -3.1240   -1.5930 N   0  0  0  0  0  1  0  0  0  0  0  0
    4.6890   -8.7800    2.7960 S   0  0  0  0  0  0  0  0  0  0  0  0
    4.3620   -7.9740    4.3960 C   0  0  0  0  0  2  0  0  0  0  0  0
    2.9290   -7.4450    4.5080 C   0  0  0  0  0  2  0  0  0  0  0  0
    2.7390   -5.9470    4.2460 C   0  0  0  0  0  2  0  0  0  0  0  0
    3.6910   -3.5820    4.3770 C   0  0  0  0  0  1  0  0  0  0  0  0
    3.9600   -5.0710    4.5350 C   0  0  0  0  0  2  0  0  0  0  0  0
  1  7  1  0  0  0  0
  1 18  1  0  0  0  0
  2  1  2  0  0  0  0
  3  4  2  0  0  0  0
  3  2  1  0  0  0  0
  4  5  1  0  0  0  0
  5  6  2  0  0  0  0
  5  7  1  0  0  0  0
  7  8  1  0  0  0  0
  9  3  1  0  0  0  0
 10  9  2  0  0  0  0
 11 10  1  0  0  0  0
 12 11  2  0  0  0  0
 12 14  1  0  0  0  0
 13 12  1  0  0  0  0
 14 15  2  0  0  0  0
 15  9  1  0  0  0  0
 16  4  1  0  0  0  0
 17 16  1  0  0  0  0
 18 19  1  0  0  0  0
 19 20  1  0  0  0  0
 21 20  1  0  0  0  0
 21 23  1  0  0  0  0
 22 23  1  0  0  0  0
M  END
>  <minimizedAffinity>
27.2922516

$$$$
