
 OpenBabel09122222393D

 34 37  0  0  1  0  0  0  0  0999 V2000
    7.3030   -4.3440    7.3780 O   0  0  0  0  0  0  0  0  0  0  0  0
    7.1630   -3.1380    7.2100 C   0  0  0  0  0  0  0  0  0  0  0  0
    5.7880   -2.5360    7.3750 C   0  0  1  0  0  3  0  0  0  0  0  0
    5.8300   -1.2470    7.7800 C   0  0  1  0  0  3  0  0  0  0  0  0
    7.1330   -0.5320    7.7690 C   0  0  0  0  0  0  0  0  0  0  0  0
    7.3410    0.6970    8.3880 C   0  0  0  0  0  3  0  0  0  0  0  0
    8.5400    1.3710    8.1650 C   0  0  0  0  0  3  0  0  0  0  0  0
    9.4710    0.8080    7.3040 C   0  0  0  0  0  3  0  0  0  0  0  0
    9.2960   -0.3710    6.6650 N   0  0  0  0  0  0  0  0  0  0  0  0
    8.1520   -1.0310    6.9260 C   0  0  0  0  0  0  0  0  0  0  0  0
    7.8840   -2.3040    6.3430 N   0  0  0  0  0  0  0  0  0  0  0  0
    5.1110   -2.9910    6.0840 C   0  0  2  0  0  3  0  0  0  0  0  0
    4.0240   -2.3050    5.7410 N   0  0  0  0  0  0  0  0  0  0  0  0
    2.5840   -2.9880    5.3870 S   0  0  0  0  0  0  0  0  0  0  0  0
    1.5290   -2.1140    5.8540 O   0  0  0  0  0  0  0  0  0  0  0  0
    2.5570   -3.5010    4.0350 O   0  0  0  0  0  0  0  0  0  0  0  0
    2.5720   -4.3790    6.4790 C   0  0  0  0  0  0  0  0  0  0  0  0
    1.2410   -4.8480    7.5800 C   0  0  0  0  0  3  0  0  0  0  0  0
    1.5600   -6.1360    8.7990 C   0  0  0  0  0  3  0  0  0  0  0  0
    3.2140   -6.9060    8.9310 C   0  0  0  0  0  3  0  0  0  0  0  0
    4.5120   -6.4390    7.7720 C   0  0  0  0  0  3  0  0  0  0  0  0
    4.1910   -5.1340    6.5830 C   0  0  0  0  0  0  0  0  0  0  0  0
    5.2100   -4.4130    5.8950 N   0  0  0  0  0  0  0  0  0  0  0  0
    3.9090   -1.3780    6.1250 H   0  0  0  0  0  0  0  0  0  0  0  0
    6.1330   -4.8280    6.0290 H   0  0  0  0  0  0  0  0  0  0  0  0
    4.7250   -0.4210    7.7720 O   0  0  0  0  0  0  0  0  0  0  0  0
    3.9250   -0.9440    7.9600 H   0  0  0  0  0  0  0  0  0  0  0  0
    8.5000   -2.8330    4.9260 C   0  0  0  0  0  1  0  0  0  0  0  0
    7.7290   -3.9730    3.1960 C   0  0  0  0  0  2  0  0  0  0  0  0
    6.0450   -4.3520    2.6950 C   0  0  0  0  0  2  0  0  0  0  0  0
    5.9080   -5.6310    1.8570 C   0  0  0  0  0  2  0  0  0  0  0  0
    6.5650   -5.5070    0.5050 C   0  0  0  0  0  2  0  0  0  0  0  0
    8.0280   -5.1830    0.6690 C   0  0  0  0  0  2  0  0  0  0  0  0
    8.2670   -3.8950    1.4680 C   0  0  0  0  0  2  0  0  0  0  0  0
  2  1  2  0  0  0  0
  3  2  1  6  0  0  0
  3  4  1  0  0  0  0
  4 26  1  6  0  0  0
  5  4  1  0  0  0  0
  5  6  1  0  0  0  0
  7  6  2  0  0  0  0
  8  7  1  0  0  0  0
  9 10  1  0  0  0  0
  9  8  2  0  0  0  0
 10  5  2  0  0  0  0
 11 10  1  0  0  0  0
 11  2  1  0  0  0  0
 12 13  1  1  0  0  0
 12  3  1  0  0  0  0
 13 24  1  0  0  0  0
 14 13  1  0  0  0  0
 14 15  2  0  0  0  0
 14 17  1  0  0  0  0
 16 14  2  0  0  0  0
 17 22  2  0  0  0  0
 17 18  1  0  0  0  0
 18 19  2  0  0  0  0
 19 20  1  0  0  0  0
 21 20  2  0  0  0  0
 22 21  1  0  0  0  0
 23 25  1  0  0  0  0
 23 12  1  0  0  0  0
 23 22  1  0  0  0  0
 26 27  1  0  0  0  0
 28 11  1  0  0  0  0
 30 29  1  0  0  0  0
 31 30  1  0  0  0  0
 32 33  1  0  0  0  0
 32 31  1  0  0  0  0
 33 34  1  0  0  0  0
 34 29  1  0  0  0  0
M  END
>  <minimizedAffinity>
-5.50846529

$$$$
