
 OpenBabel09122222393D

 34 37  0  0  1  0  0  0  0  0999 V2000
    4.7190   -2.5810    3.2510 O   0  0  0  0  0  0  0  0  0  0  0  0
    4.8420   -3.7970    3.1480 C   0  0  0  0  0  0  0  0  0  0  0  0
    4.2560   -4.6800    4.2230 C   0  0  1  0  0  3  0  0  0  0  0  0
    3.8930   -5.8960    3.7560 C   0  0  1  0  0  3  0  0  0  0  0  0
    4.3180   -6.2980    2.3900 C   0  0  0  0  0  0  0  0  0  0  0  0
    3.8040   -7.4030    1.7190 C   0  0  0  0  0  3  0  0  0  0  0  0
    4.3970   -7.8040    0.5240 C   0  0  0  0  0  3  0  0  0  0  0  0
    5.5050   -7.1050    0.0620 C   0  0  0  0  0  3  0  0  0  0  0  0
    6.0480   -6.0420    0.6970 N   0  0  0  0  0  0  0  0  0  0  0  0
    5.4360   -5.6410    1.8280 C   0  0  0  0  0  0  0  0  0  0  0  0
    5.8970   -4.5030    2.5530 N   0  0  0  0  0  0  0  0  0  0  0  0
    5.2650   -4.4790    5.3510 C   0  0  2  0  0  3  0  0  0  0  0  0
    5.2860   -5.4370    6.2730 N   0  0  0  0  0  0  0  0  0  0  0  0
    5.1630   -5.1670    7.8780 S   0  0  0  0  0  0  0  0  0  0  0  0
    4.4280   -6.2600    8.4790 O   0  0  0  0  0  0  0  0  0  0  0  0
    6.4260   -4.7450    8.4440 O   0  0  0  0  0  0  0  0  0  0  0  0
    4.0740   -3.7750    7.9230 C   0  0  0  0  0  0  0  0  0  0  0  0
    2.6060   -3.6120    8.9350 C   0  0  0  0  0  3  0  0  0  0  0  0
    1.5000   -2.2280    8.6110 C   0  0  0  0  0  3  0  0  0  0  0  0
    1.8500   -1.0520    7.2540 C   0  0  0  0  0  3  0  0  0  0  0  0
    3.3630   -1.2240    6.2900 C   0  0  0  0  0  3  0  0  0  0  0  0
    4.4400   -2.6230    6.6040 C   0  0  0  0  0  0  0  0  0  0  0  0
    5.4290   -3.0900    5.6870 N   0  0  0  0  0  0  0  0  0  0  0  0
    4.9150   -6.3430    6.0210 H   0  0  0  0  0  0  0  0  0  0  0  0
    5.5670   -2.4450    4.9080 H   0  0  0  0  0  0  0  0  0  0  0  0
    3.5580   -6.9480    4.5840 O   0  0  0  0  0  0  0  0  0  0  0  0
    3.1250   -6.6070    5.3870 H   0  0  0  0  0  0  0  0  0  0  0  0
    7.4330   -3.9480    2.5450 C   0  0  0  0  0  1  0  0  0  0  0  0
    8.6410   -2.6280    3.8420 C   0  0  0  0  0  2  0  0  0  0  0  0
    9.8810   -3.0160    5.0850 C   0  0  0  0  0  2  0  0  0  0  0  0
   10.0350   -1.9500    6.1770 C   0  0  0  0  0  2  0  0  0  0  0  0
   10.5930   -0.6540    5.6440 C   0  0  0  0  0  2  0  0  0  0  0  0
    9.6980   -0.1150    4.5570 C   0  0  0  0  0  2  0  0  0  0  0  0
    9.5100   -1.1010    3.3970 C   0  0  0  0  0  2  0  0  0  0  0  0
  2  1  2  0  0  0  0
  3  2  1  6  0  0  0
  3 12  1  0  0  0  0
  4  3  1  0  0  0  0
  4 26  1  1  0  0  0
  5  4  1  0  0  0  0
  6  5  2  0  0  0  0
  7  6  1  0  0  0  0
  8  7  2  0  0  0  0
  8  9  1  0  0  0  0
  9 10  2  0  0  0  0
 10  5  1  0  0  0  0
 10 11  1  0  0  0  0
 11  2  1  0  0  0  0
 12 23  1  1  0  0  0
 12 13  1  0  0  0  0
 13 14  1  0  0  0  0
 14 17  1  0  0  0  0
 14 16  2  0  0  0  0
 14 15  2  0  0  0  0
 17 18  1  0  0  0  0
 19 18  2  0  0  0  0
 20 19  1  0  0  0  0
 21 22  1  0  0  0  0
 21 20  2  0  0  0  0
 22 17  2  0  0  0  0
 23 22  1  0  0  0  0
 24 13  1  0  0  0  0
 25 23  1  0  0  0  0
 26 27  1  0  0  0  0
 28 11  1  0  0  0  0
 29 30  1  0  0  0  0
 30 31  1  0  0  0  0
 32 31  1  0  0  0  0
 33 32  1  0  0  0  0
 34 29  1  0  0  0  0
 34 33  1  0  0  0  0
M  END
>  <minimizedAffinity>
-4.8048377

$$$$
