
 OpenBabel09122222393D

 34 37  0  0  1  0  0  0  0  0999 V2000
    6.5490   -4.4670    6.6210 O   0  0  0  0  0  0  0  0  0  0  0  0
    7.0250   -3.3450    6.7530 C   0  0  0  0  0  0  0  0  0  0  0  0
    6.3010   -2.3470    7.6240 C   0  0  1  0  0  3  0  0  0  0  0  0
    7.1390   -1.4480    8.1900 C   0  0  1  0  0  3  0  0  0  0  0  0
    8.5480   -1.3840    7.7220 C   0  0  0  0  0  0  0  0  0  0  0  0
    9.5490   -0.6850    8.3900 C   0  0  0  0  0  3  0  0  0  0  0  0
   10.7900   -0.5310    7.7760 C   0  0  0  0  0  3  0  0  0  0  0  0
   10.9730   -1.0520    6.5030 C   0  0  0  0  0  3  0  0  0  0  0  0
   10.0180   -1.7160    5.8110 N   0  0  0  0  0  0  0  0  0  0  0  0
    8.8390   -1.8940    6.4360 C   0  0  0  0  0  0  0  0  0  0  0  0
    7.7780   -2.6190    5.8190 N   0  0  0  0  0  0  0  0  0  0  0  0
    5.1360   -1.9560    6.7180 C   0  0  2  0  0  3  0  0  0  0  0  0
    4.2680   -1.0970    7.2460 N   0  0  0  0  0  0  0  0  0  0  0  0
    2.6550   -1.3390    7.2950 S   0  0  0  0  0  0  0  0  0  0  0  0
    2.1370   -0.7700    8.5210 O   0  0  0  0  0  0  0  0  0  0  0  0
    2.0320   -1.0230    6.0280 O   0  0  0  0  0  0  0  0  0  0  0  0
    2.5640   -3.0930    7.5050 C   0  0  0  0  0  0  0  0  0  0  0  0
    1.5860   -3.9630    8.7260 C   0  0  0  0  0  3  0  0  0  0  0  0
    1.8630   -5.7300    8.9350 C   0  0  0  0  0  3  0  0  0  0  0  0
    3.1430   -6.5960    7.9550 C   0  0  0  0  0  3  0  0  0  0  0  0
    4.0720   -5.6930    6.7020 C   0  0  0  0  0  3  0  0  0  0  0  0
    3.8070   -3.9270    6.5250 C   0  0  0  0  0  0  0  0  0  0  0  0
    4.7190   -3.0440    5.8750 N   0  0  0  0  0  0  0  0  0  0  0  0
    4.5800   -0.5260    8.0190 H   0  0  0  0  0  0  0  0  0  0  0  0
    5.4570   -3.5490    5.3820 H   0  0  0  0  0  0  0  0  0  0  0  0
    6.6950   -0.3080    8.8280 O   0  0  0  0  0  0  0  0  0  0  0  0
    5.8400   -0.4860    9.2590 H   0  0  0  0  0  0  0  0  0  0  0  0
    7.5630   -2.7710    4.2070 C   0  0  0  0  0  1  0  0  0  0  0  0
    8.5940   -2.0260    2.4000 C   0  0  0  0  0  2  0  0  0  0  0  0
    9.4270   -0.4650    2.0810 C   0  0  0  0  0  2  0  0  0  0  0  0
    9.4620   -0.0580    0.6020 C   0  0  0  0  0  2  0  0  0  0  0  0
   10.3100   -0.9850   -0.2310 C   0  0  0  0  0  2  0  0  0  0  0  0
    9.7920   -2.3960   -0.1250 C   0  0  0  0  0  2  0  0  0  0  0  0
    9.7520   -2.9080    1.3220 C   0  0  0  0  0  2  0  0  0  0  0  0
  1  2  2  0  0  0  0
  3  2  1  6  0  0  0
  3  4  1  0  0  0  0
  4 26  1  6  0  0  0
  5  4  1  0  0  0  0
  5  6  1  0  0  0  0
  7  6  2  0  0  0  0
  8  7  1  0  0  0  0
  9 10  1  0  0  0  0
  9  8  2  0  0  0  0
 10  5  2  0  0  0  0
 11 10  1  0  0  0  0
 11  2  1  0  0  0  0
 12 23  1  1  0  0  0
 12 13  1  0  0  0  0
 12  3  1  0  0  0  0
 13 14  1  0  0  0  0
 13 24  1  0  0  0  0
 14 17  1  0  0  0  0
 14 15  2  0  0  0  0
 16 14  2  0  0  0  0
 17 18  1  0  0  0  0
 18 19  2  0  0  0  0
 20 19  1  0  0  0  0
 21 20  2  0  0  0  0
 22 21  1  0  0  0  0
 22 17  2  0  0  0  0
 23 22  1  0  0  0  0
 25 23  1  0  0  0  0
 26 27  1  0  0  0  0
 28 11  1  0  0  0  0
 30 29  1  0  0  0  0
 31 30  1  0  0  0  0
 32 33  1  0  0  0  0
 32 31  1  0  0  0  0
 33 34  1  0  0  0  0
 34 29  1  0  0  0  0
M  END
>  <minimizedAffinity>
-4.74982023

$$$$
