
 OpenBabel09122222393D

 34 37  0  0  1  0  0  0  0  0999 V2000
    3.6620   -3.3180    2.6110 O   0  0  0  0  0  0  0  0  0  0  0  0
    4.3770   -4.2890    2.8340 C   0  0  0  0  0  0  0  0  0  0  0  0
    3.8140   -5.4360    3.6380 C   0  0  1  0  0  3  0  0  0  0  0  0
    4.3770   -6.6230    3.3140 C   0  0  1  0  0  3  0  0  0  0  0  0
    5.5840   -6.6340    2.4480 C   0  0  0  0  0  0  0  0  0  0  0  0
    6.0940   -7.7840    1.8540 C   0  0  0  0  0  3  0  0  0  0  0  0
    7.3310   -7.7230    1.2150 C   0  0  0  0  0  3  0  0  0  0  0  0
    8.0270   -6.5220    1.2240 C   0  0  0  0  0  3  0  0  0  0  0  0
    7.5770   -5.3900    1.8110 N   0  0  0  0  0  0  0  0  0  0  0  0
    6.3610   -5.4540    2.3860 C   0  0  0  0  0  0  0  0  0  0  0  0
    5.7700   -4.3080    2.9930 N   0  0  0  0  0  0  0  0  0  0  0  0
    3.8420   -4.8490    5.0480 C   0  0  2  0  0  3  0  0  0  0  0  0
    4.4860   -5.5790    5.9540 N   0  0  0  0  0  0  0  0  0  0  0  0
    3.8500   -6.0270    7.3890 S   0  0  0  0  0  0  0  0  0  0  0  0
    4.3460   -7.3450    7.7260 O   0  0  0  0  0  0  0  0  0  0  0  0
    3.9190   -4.9560    8.3590 O   0  0  0  0  0  0  0  0  0  0  0  0
    2.1460   -6.2490    6.9690 C   0  0  0  0  0  0  0  0  0  0  0  0
    1.1360   -7.6730    7.3650 C   0  0  0  0  0  3  0  0  0  0  0  0
   -0.4880   -7.8020    6.5970 C   0  0  0  0  0  3  0  0  0  0  0  0
   -1.0630   -6.5320    5.4120 C   0  0  0  0  0  3  0  0  0  0  0  0
   -0.0350   -5.0900    5.0780 C   0  0  0  0  0  3  0  0  0  0  0  0
    1.5920   -4.9890    5.8270 C   0  0  0  0  0  0  0  0  0  0  0  0
    2.6340   -4.1350    5.3580 N   0  0  0  0  0  0  0  0  0  0  0  0
    5.1650   -6.2510    5.6250 H   0  0  0  0  0  0  0  0  0  0  0  0
    2.3020   -3.4720    4.6560 H   0  0  0  0  0  0  0  0  0  0  0  0
    4.2020   -7.7660    4.0660 O   0  0  0  0  0  0  0  0  0  0  0  0
    3.3120   -7.7630    4.4640 H   0  0  0  0  0  0  0  0  0  0  0  0
    6.6000   -3.0520    3.6250 C   0  0  0  0  0  1  0  0  0  0  0  0
    8.0550   -2.7880    5.2680 C   0  0  0  0  0  2  0  0  0  0  0  0
    9.7020   -2.0670    5.2740 C   0  0  0  0  0  2  0  0  0  0  0  0
   10.6220   -2.6040    6.3790 C   0  0  0  0  0  2  0  0  0  0  0  0
   10.1560   -2.2110    7.7580 C   0  0  0  0  0  2  0  0  0  0  0  0
    8.7580   -2.7200    7.9960 C   0  0  0  0  0  2  0  0  0  0  0  0
    7.7520   -2.2070    6.9570 C   0  0  0  0  0  2  0  0  0  0  0  0
  1  2  2  0  0  0  0
  2 11  1  0  0  0  0
  3  2  1  6  0  0  0
  3 12  1  0  0  0  0
  4  3  1  0  0  0  0
  4 26  1  1  0  0  0
  5  4  1  0  0  0  0
  6  5  2  0  0  0  0
  7  8  2  0  0  0  0
  7  6  1  0  0  0  0
  8  9  1  0  0  0  0
  9 10  2  0  0  0  0
 10  5  1  0  0  0  0
 10 11  1  0  0  0  0
 11 28  1  0  0  0  0
 12 23  1  1  0  0  0
 12 13  1  0  0  0  0
 13 14  1  0  0  0  0
 14 15  2  0  0  0  0
 14 16  2  0  0  0  0
 17 18  1  0  0  0  0
 17 14  1  0  0  0  0
 19 18  2  0  0  0  0
 20 19  1  0  0  0  0
 21 20  2  0  0  0  0
 21 22  1  0  0  0  0
 22 17  2  0  0  0  0
 23 22  1  0  0  0  0
 24 13  1  0  0  0  0
 25 23  1  0  0  0  0
 26 27  1  0  0  0  0
 29 30  1  0  0  0  0
 29 34  1  0  0  0  0
 30 31  1  0  0  0  0
 31 32  1  0  0  0  0
 32 33  1  0  0  0  0
 34 33  1  0  0  0  0
M  END
>  <minimizedAffinity>
-3.98437548

$$$$
