
 OpenBabel09122222393D

 34 37  0  0  1  0  0  0  0  0999 V2000
    7.3960   -4.0850    7.8560 O   0  0  0  0  0  0  0  0  0  0  0  0
    7.2160   -2.8920    7.6410 C   0  0  0  0  0  0  0  0  0  0  0  0
    5.8010   -2.3650    7.6120 C   0  0  1  0  0  3  0  0  0  0  0  0
    5.7220   -1.0680    7.9860 C   0  0  1  0  0  3  0  0  0  0  0  0
    6.9760   -0.2820    8.1260 C   0  0  0  0  0  0  0  0  0  0  0  0
    7.0360    0.9680    8.7350 C   0  0  0  0  0  3  0  0  0  0  0  0
    8.2160    1.7030    8.6520 C   0  0  0  0  0  3  0  0  0  0  0  0
    9.2810    1.1770    7.9330 C   0  0  0  0  0  3  0  0  0  0  0  0
    9.2530   -0.0220    7.3070 N   0  0  0  0  0  0  0  0  0  0  0  0
    8.1200   -0.7390    7.4340 C   0  0  0  0  0  0  0  0  0  0  0  0
    7.9990   -2.0360    6.8540 N   0  0  0  0  0  0  0  0  0  0  0  0
    5.3230   -2.8800    6.2560 C   0  0  2  0  0  3  0  0  0  0  0  0
    4.2600   -2.2580    5.7540 N   0  0  0  0  0  0  0  0  0  0  0  0
    2.9140   -3.0210    5.2340 S   0  0  0  0  0  0  0  0  0  0  0  0
    1.7650   -2.1920    5.5340 O   0  0  0  0  0  0  0  0  0  0  0  0
    3.0900   -3.5620    3.9040 O   0  0  0  0  0  0  0  0  0  0  0  0
    2.8240   -4.3880    6.3520 C   0  0  0  0  0  0  0  0  0  0  0  0
    1.3830   -4.9020    7.2810 C   0  0  0  0  0  3  0  0  0  0  0  0
    1.6000   -6.1460    8.5660 C   0  0  0  0  0  3  0  0  0  0  0  0
    3.2570   -6.8280    8.9340 C   0  0  0  0  0  3  0  0  0  0  0  0
    4.6730   -6.3190    7.9430 C   0  0  0  0  0  3  0  0  0  0  0  0
    4.4490   -5.0570    6.6880 C   0  0  0  0  0  0  0  0  0  0  0  0
    5.5150   -4.2990    6.1190 N   0  0  0  0  0  0  0  0  0  0  0  0
    4.0500   -1.3300    6.0960 H   0  0  0  0  0  0  0  0  0  0  0  0
    6.4310   -4.6630    6.3850 H   0  0  0  0  0  0  0  0  0  0  0  0
    4.5850   -0.3050    7.8140 O   0  0  0  0  0  0  0  0  0  0  0  0
    3.7960   -0.8690    7.9100 H   0  0  0  0  0  0  0  0  0  0  0  0
    8.8220   -2.5550    5.5420 C   0  0  0  0  0  1  0  0  0  0  0  0
    9.1240   -1.8250    3.4780 C   0  0  0  0  0  2  0  0  0  0  0  0
    9.4880   -0.1790    2.8540 C   0  0  0  0  0  2  0  0  0  0  0  0
    9.0190    0.0690    1.4140 C   0  0  0  0  0  2  0  0  0  0  0  0
    9.7730   -0.7670    0.4100 C   0  0  0  0  0  2  0  0  0  0  0  0
    9.6120   -2.2310    0.7320 C   0  0  0  0  0  2  0  0  0  0  0  0
   10.0900   -2.5860    2.1460 C   0  0  0  0  0  2  0  0  0  0  0  0
  2  1  2  0  0  0  0
  3  2  1  6  0  0  0
  3  4  1  0  0  0  0
  4 26  1  6  0  0  0
  4  5  1  0  0  0  0
  5  6  1  0  0  0  0
  7  6  2  0  0  0  0
  8  7  1  0  0  0  0
  9 10  1  0  0  0  0
  9  8  2  0  0  0  0
 10  5  2  0  0  0  0
 11 10  1  0  0  0  0
 11  2  1  0  0  0  0
 12 13  1  1  0  0  0
 12  3  1  0  0  0  0
 13 24  1  0  0  0  0
 14 15  2  0  0  0  0
 14 13  1  0  0  0  0
 14 17  1  0  0  0  0
 16 14  2  0  0  0  0
 17 22  2  0  0  0  0
 17 18  1  0  0  0  0
 18 19  2  0  0  0  0
 19 20  1  0  0  0  0
 21 20  2  0  0  0  0
 22 21  1  0  0  0  0
 23 12  1  0  0  0  0
 23 25  1  0  0  0  0
 23 22  1  0  0  0  0
 26 27  1  0  0  0  0
 28 11  1  0  0  0  0
 30 29  1  0  0  0  0
 31 30  1  0  0  0  0
 32 33  1  0  0  0  0
 32 31  1  0  0  0  0
 33 34  1  0  0  0  0
 34 29  1  0  0  0  0
M  END
>  <minimizedAffinity>
-6.6493516

$$$$
