
 OpenBabel09122222393D

 24 27  0  0  0  0  0  0  0  0999 V2000
   10.1060    3.6950    5.2240 C   0  0  0  0  0  0  0  0  0  0  0  0
   10.4360    4.9520    4.6920 C   0  0  0  0  0  3  0  0  0  0  0  0
   10.7550    5.1320    3.3400 C   0  0  0  0  0  3  0  0  0  0  0  0
   10.7390    4.0000    2.5150 C   0  0  0  0  0  0  0  0  0  0  0  0
   10.4220    2.7360    3.0080 C   0  0  0  0  0  0  0  0  0  0  0  0
   10.1020    2.5780    4.3650 C   0  0  0  0  0  3  0  0  0  0  0  0
   10.4800    1.7950    2.0110 N   0  0  0  0  0  0  0  0  0  0  0  0
   10.8540    2.4350    0.9200 C   0  0  0  0  0  0  0  0  0  0  0  0
   10.9730    3.7940    1.1700 N   0  0  0  0  0  0  0  0  0  0  0  0
   11.0660    1.7810   -0.3720 C   0  0  0  0  0  0  0  0  0  0  0  0
   12.1280    2.1540   -1.2070 C   0  0  0  0  0  3  0  0  0  0  0  0
   12.3140    1.5190   -2.4370 C   0  0  0  0  0  3  0  0  0  0  0  0
   11.4470    0.5010   -2.8340 C   0  0  0  0  0  3  0  0  0  0  0  0
   10.4010    0.1090   -1.9990 C   0  0  0  0  0  3  0  0  0  0  0  0
   10.2150    0.7430   -0.7690 C   0  0  0  0  0  3  0  0  0  0  0  0
   11.2420    4.8220    0.1670 C   0  0  0  0  0  3  0  0  0  0  0  0
   10.1770    5.9320    0.1410 C   0  0  0  0  0  2  0  0  0  0  0  0
   10.4710    6.9550   -0.9560 C   0  0  0  0  0  2  0  0  0  0  0  0
   11.8820    7.5230   -0.8340 C   0  0  0  0  0  2  0  0  0  0  0  0
   12.9360    6.4200   -0.8250 C   0  0  0  0  0  2  0  0  0  0  0  0
   12.6670    5.3890    0.2710 C   0  0  0  0  0  2  0  0  0  0  0  0
   10.5020    2.7710    7.3810 O   0  0  0  0  0  1  0  0  0  0  0  0
    9.7640    3.5460    6.6930 C   0  0  0  0  0  0  0  0  0  0  0  0
    8.7690    4.2030    7.1300 O   0  0  0  0  0  0  0  0  0  0  0  0
  1 23  1  0  0  0  0
  2  1  1  0  0  0  0
  3  2  2  0  0  0  0
  4  5  2  0  0  0  0
  4  3  1  0  0  0  0
  5  6  1  0  0  0  0
  6  1  2  0  0  0  0
  7  5  1  0  0  0  0
  8  9  1  0  0  0  0
  8  7  2  0  0  0  0
  9  4  1  0  0  0  0
 10  8  1  0  0  0  0
 11 10  2  0  0  0  0
 12 11  1  0  0  0  0
 13 12  2  0  0  0  0
 13 14  1  0  0  0  0
 14 15  2  0  0  0  0
 15 10  1  0  0  0  0
 16 21  1  0  0  0  0
 16  9  1  0  0  0  0
 17 16  1  0  0  0  0
 18 19  1  0  0  0  0
 18 17  1  0  0  0  0
 19 20  1  0  0  0  0
 20 21  1  0  0  0  0
 23 24  2  0  0  0  0
 23 22  1  0  0  0  0
M  END
>  <minimizedAffinity>
-5.45959568

$$$$
