
 OpenBabel09122222393D

 24 27  0  0  0  0  0  0  0  0999 V2000
    9.7600    6.6330   -0.0030 C   0  0  0  0  0  0  0  0  0  0  0  0
   10.4230    6.8050    1.2230 C   0  0  0  0  0  3  0  0  0  0  0  0
   10.7180    5.7290    2.0710 C   0  0  0  0  0  3  0  0  0  0  0  0
   10.3240    4.4510    1.6560 C   0  0  0  0  0  0  0  0  0  0  0  0
    9.6600    4.2420    0.4490 C   0  0  0  0  0  0  0  0  0  0  0  0
    9.3760    5.3330   -0.3870 C   0  0  0  0  0  3  0  0  0  0  0  0
    9.3780    2.9110    0.2710 N   0  0  0  0  0  0  0  0  0  0  0  0
    9.8200    2.2930    1.3480 C   0  0  0  0  0  0  0  0  0  0  0  0
   10.4540    3.1870    2.1980 N   0  0  0  0  0  0  0  0  0  0  0  0
    9.6860    0.8520    1.5700 C   0  0  0  0  0  0  0  0  0  0  0  0
    9.4550    0.3350    2.8520 C   0  0  0  0  0  3  0  0  0  0  0  0
    9.3300   -1.0420    3.0440 C   0  0  0  0  0  3  0  0  0  0  0  0
    9.4230   -1.9100    1.9560 C   0  0  0  0  0  3  0  0  0  0  0  0
    9.6310   -1.4020    0.6740 C   0  0  0  0  0  3  0  0  0  0  0  0
    9.7560   -0.0240    0.4810 C   0  0  0  0  0  3  0  0  0  0  0  0
   11.1750    2.8360    3.4190 C   0  0  0  0  0  3  0  0  0  0  0  0
   12.6660    3.2130    3.3680 C   0  0  0  0  0  2  0  0  0  0  0  0
   13.3900    2.7790    4.6420 C   0  0  0  0  0  2  0  0  0  0  0  0
   12.7070    3.3260    5.8920 C   0  0  0  0  0  2  0  0  0  0  0  0
   11.2330    2.9350    5.9470 C   0  0  0  0  0  2  0  0  0  0  0  0
   10.4870    3.3670    4.6850 C   0  0  0  0  0  2  0  0  0  0  0  0
    8.5850    8.6480   -0.4790 O   0  0  0  0  0  1  0  0  0  0  0  0
    9.4630    7.8240   -0.8920 C   0  0  0  0  0  0  0  0  0  0  0  0
   10.1090    7.9150   -1.9820 O   0  0  0  0  0  0  0  0  0  0  0  0
  1  2  1  0  0  0  0
  2  3  2  0  0  0  0
  4  3  1  0  0  0  0
  4  9  1  0  0  0  0
  5  4  2  0  0  0  0
  6  1  2  0  0  0  0
  6  5  1  0  0  0  0
  7  5  1  0  0  0  0
  7  8  2  0  0  0  0
  8 10  1  0  0  0  0
  8  9  1  0  0  0  0
  9 16  1  0  0  0  0
 10 11  1  0  0  0  0
 11 12  2  0  0  0  0
 13 12  1  0  0  0  0
 14 13  2  0  0  0  0
 15 14  1  0  0  0  0
 15 10  2  0  0  0  0
 16 21  1  0  0  0  0
 17 16  1  0  0  0  0
 17 18  1  0  0  0  0
 18 19  1  0  0  0  0
 19 20  1  0  0  0  0
 21 20  1  0  0  0  0
 23 22  1  0  0  0  0
 23  1  1  0  0  0  0
 24 23  2  0  0  0  0
M  END
>  <minimizedAffinity>
-5.53160667

$$$$
