
 OpenBabel09122222393D

 24 27  0  0  0  0  0  0  0  0999 V2000
    9.3990    9.6750    0.4560 C   0  0  0  0  0  0  0  0  0  0  0  0
    9.8290    8.7230   -0.4830 C   0  0  0  0  0  3  0  0  0  0  0  0
   10.2820    7.4530   -0.1070 C   0  0  0  0  0  3  0  0  0  0  0  0
   10.2970    7.1500    1.2610 C   0  0  0  0  0  0  0  0  0  0  0  0
    9.8830    8.0700    2.2220 C   0  0  0  0  0  0  0  0  0  0  0  0
    9.4300    9.3370    1.8230 C   0  0  0  0  0  3  0  0  0  0  0  0
    9.9960    7.5430    3.4830 N   0  0  0  0  0  0  0  0  0  0  0  0
   10.4980    6.3320    3.3340 C   0  0  0  0  0  0  0  0  0  0  0  0
   10.6480    6.0300    1.9890 N   0  0  0  0  0  0  0  0  0  0  0  0
   10.8040    5.4370    4.4500 C   0  0  0  0  0  0  0  0  0  0  0  0
   10.3840    4.1000    4.4430 C   0  0  0  0  0  3  0  0  0  0  0  0
   10.6840    3.2610    5.5180 C   0  0  0  0  0  3  0  0  0  0  0  0
   11.4160    3.7490    6.6010 C   0  0  0  0  0  3  0  0  0  0  0  0
   11.8570    5.0720    6.6050 C   0  0  0  0  0  3  0  0  0  0  0  0
   11.5570    5.9110    5.5310 C   0  0  0  0  0  3  0  0  0  0  0  0
   11.0530    4.7350    1.4480 C   0  0  0  0  0  3  0  0  0  0  0  0
    9.9930    4.1080    0.5270 C   0  0  0  0  0  2  0  0  0  0  0  0
   10.4360    2.7330    0.0280 C   0  0  0  0  0  2  0  0  0  0  0  0
   11.8070    2.7910   -0.6390 C   0  0  0  0  0  2  0  0  0  0  0  0
   12.8600    3.3970    0.2840 C   0  0  0  0  0  2  0  0  0  0  0  0
   12.4410    4.7780    0.7890 C   0  0  0  0  0  2  0  0  0  0  0  0
    7.6620   11.2600    0.0810 O   0  0  0  0  0  1  0  0  0  0  0  0
    8.9130   11.0380    0.0040 C   0  0  0  0  0  0  0  0  0  0  0  0
    9.7870   11.8590   -0.4160 O   0  0  0  0  0  0  0  0  0  0  0  0
  1  6  1  0  0  0  0
  2  3  1  0  0  0  0
  2  1  2  0  0  0  0
  3  4  2  0  0  0  0
  4  9  1  0  0  0  0
  4  5  1  0  0  0  0
  5  7  1  0  0  0  0
  6  5  2  0  0  0  0
  8  7  2  0  0  0  0
  8 10  1  0  0  0  0
  9  8  1  0  0  0  0
 10 15  1  0  0  0  0
 11 10  2  0  0  0  0
 11 12  1  0  0  0  0
 12 13  2  0  0  0  0
 13 14  1  0  0  0  0
 15 14  2  0  0  0  0
 16  9  1  0  0  0  0
 17 16  1  0  0  0  0
 18 17  1  0  0  0  0
 19 18  1  0  0  0  0
 19 20  1  0  0  0  0
 20 21  1  0  0  0  0
 21 16  1  0  0  0  0
 23 22  1  0  0  0  0
 23  1  1  0  0  0  0
 24 23  2  0  0  0  0
M  END
>  <minimizedAffinity>
-5.43954468

$$$$
