
 OpenBabel09122217383D

 24 27  0  0  0  0  0  0  0  0999 V2000
    9.5200    8.0310    1.1790 C   0  0  0  0  0  0  0  0  0  0  0  0
   10.0900    7.7410    2.4290 C   0  0  0  0  0  3  0  0  0  0  0  0
   10.5000    6.4500    2.7830 C   0  0  0  0  0  3  0  0  0  0  0  0
   10.3210    5.4320    1.8370 C   0  0  0  0  0  0  0  0  0  0  0  0
    9.7540    5.6800    0.5890 C   0  0  0  0  0  0  0  0  0  0  0  0
    9.3520    6.9820    0.2530 C   0  0  0  0  0  3  0  0  0  0  0  0
    9.6810    4.5270   -0.1510 N   0  0  0  0  0  0  0  0  0  0  0  0
   10.1580    3.5650    0.6140 C   0  0  0  0  0  0  0  0  0  0  0  0
   10.6100    4.0820    1.8200 N   0  0  0  0  0  0  0  0  0  0  0  0
   10.2280    2.1620    0.2060 C   0  0  0  0  0  0  0  0  0  0  0  0
    9.5710    1.1610    0.9350 C   0  0  0  0  0  3  0  0  0  0  0  0
    9.6500   -0.1730    0.5300 C   0  0  0  0  0  3  0  0  0  0  0  0
   10.3750   -0.5140   -0.6120 C   0  0  0  0  0  3  0  0  0  0  0  0
   11.0130    0.4790   -1.3550 C   0  0  0  0  0  3  0  0  0  0  0  0
   10.9350    1.8130   -0.9510 C   0  0  0  0  0  3  0  0  0  0  0  0
   11.3160    3.3310    2.8550 C   0  0  0  0  0  3  0  0  0  0  0  0
   12.7080    3.9040    3.1720 C   0  0  0  0  0  2  0  0  0  0  0  0
   13.4300    3.0570    4.2200 C   0  0  0  0  0  2  0  0  0  0  0  0
   12.5870    2.8810    5.4800 C   0  0  0  0  0  2  0  0  0  0  0  0
   11.2130    2.2970    5.1630 C   0  0  0  0  0  2  0  0  0  0  0  0
   10.4700    3.1330    4.1220 C   0  0  0  0  0  2  0  0  0  0  0  0
    7.8630    9.6240    0.5580 O   0  0  0  0  0  0  0  0  0  0  0  0
    9.0920    9.4440    0.8350 C   0  0  0  0  0  0  0  0  0  0  0  0
    9.9880   10.3450    0.8490 O   0  0  0  0  0  1  0  0  0  0  0  0
  1  2  1  0  0  0  0
  2  3  2  0  0  0  0
  4  3  1  0  0  0  0
  5  4  2  0  0  0  0
  6  5  1  0  0  0  0
  6  1  2  0  0  0  0
  7  5  1  0  0  0  0
  7  8  2  0  0  0  0
  8  9  1  0  0  0  0
  9  4  1  0  0  0  0
  9 16  1  0  0  0  0
 10  8  1  0  0  0  0
 10 11  1  0  0  0  0
 12 11  2  0  0  0  0
 13 12  1  0  0  0  0
 14 15  1  0  0  0  0
 14 13  2  0  0  0  0
 15 10  2  0  0  0  0
 16 17  1  0  0  0  0
 16 21  1  0  0  0  0
 17 18  1  0  0  0  0
 18 19  1  0  0  0  0
 20 19  1  0  0  0  0
 21 20  1  0  0  0  0
 22 23  2  0  0  0  0
 23 24  1  0  0  0  0
 23  1  1  0  0  0  0
M  END
>  <minimizedAffinity>
-6.39441633

$$$$

 OpenBabel09122217383D

 24 27  0  0  0  0  0  0  0  0999 V2000
    9.2930    8.4230    0.9000 C   0  0  0  0  0  0  0  0  0  0  0  0
    9.5400    7.5530   -0.1740 C   0  0  0  0  0  3  0  0  0  0  0  0
   10.0240    6.2530    0.0130 C   0  0  0  0  0  3  0  0  0  0  0  0
   10.2630    5.8340    1.3280 C   0  0  0  0  0  0  0  0  0  0  0  0
   10.0350    6.6710    2.4180 C   0  0  0  0  0  0  0  0  0  0  0  0
    9.5470    7.9700    2.2090 C   0  0  0  0  0  3  0  0  0  0  0  0
   10.3490    6.0370    3.5940 N   0  0  0  0  0  0  0  0  0  0  0  0
   10.7940    4.8410    3.2610 C   0  0  0  0  0  0  0  0  0  0  0  0
   10.7100    4.6540    1.8890 N   0  0  0  0  0  0  0  0  0  0  0  0
   11.2650    3.8520    4.2310 C   0  0  0  0  0  0  0  0  0  0  0  0
   10.3740    2.9740    4.8630 C   0  0  0  0  0  3  0  0  0  0  0  0
   10.8420    2.0370    5.7860 C   0  0  0  0  0  3  0  0  0  0  0  0
   12.2050    1.9630    6.0750 C   0  0  0  0  0  3  0  0  0  0  0  0
   13.1020    2.8180    5.4340 C   0  0  0  0  0  3  0  0  0  0  0  0
   12.6330    3.7550    4.5110 C   0  0  0  0  0  3  0  0  0  0  0  0
   10.9920    3.4080    1.1820 C   0  0  0  0  0  3  0  0  0  0  0  0
    9.7490    2.5170    1.0100 C   0  0  0  0  0  2  0  0  0  0  0  0
   10.1010    1.2030    0.3140 C   0  0  0  0  0  2  0  0  0  0  0  0
   10.8180    1.4430   -1.0120 C   0  0  0  0  0  2  0  0  0  0  0  0
   12.0590    2.3120   -0.8350 C   0  0  0  0  0  2  0  0  0  0  0  0
   11.7280    3.6360   -0.1470 C   0  0  0  0  0  2  0  0  0  0  0  0
    9.6090   10.7750    0.7020 O   0  0  0  0  0  1  0  0  0  0  0  0
    8.7650    9.8230    0.6530 C   0  0  0  0  0  0  0  0  0  0  0  0
    7.5230    9.9450    0.4150 O   0  0  0  0  0  0  0  0  0  0  0  0
  1  6  1  0  0  0  0
  2  3  1  0  0  0  0
  2  1  2  0  0  0  0
  3  4  2  0  0  0  0
  4  9  1  0  0  0  0
  4  5  1  0  0  0  0
  5  7  1  0  0  0  0
  6  5  2  0  0  0  0
  8  7  2  0  0  0  0
  8 10  1  0  0  0  0
  9  8  1  0  0  0  0
 10 15  2  0  0  0  0
 10 11  1  0  0  0  0
 11 12  2  0  0  0  0
 12 13  1  0  0  0  0
 14 13  2  0  0  0  0
 15 14  1  0  0  0  0
 16  9  1  0  0  0  0
 17 16  1  0  0  0  0
 18 17  1  0  0  0  0
 19 20  1  0  0  0  0
 19 18  1  0  0  0  0
 20 21  1  0  0  0  0
 21 16  1  0  0  0  0
 23 22  1  0  0  0  0
 23  1  1  0  0  0  0
 24 23  2  0  0  0  0
M  END
>  <minimizedAffinity>
-6.09012938

$$$$

 OpenBabel09122217383D

 24 27  0  0  0  0  0  0  0  0999 V2000
    9.4090    8.9710    0.8680 C   0  0  0  0  0  0  0  0  0  0  0  0
   10.0250    8.8250    2.1220 C   0  0  0  0  0  3  0  0  0  0  0  0
   10.4440    7.5800    2.6090 C   0  0  0  0  0  3  0  0  0  0  0  0
   10.2260    6.4610    1.7960 C   0  0  0  0  0  0  0  0  0  0  0  0
    9.6130    6.5660    0.5490 C   0  0  0  0  0  0  0  0  0  0  0  0
    9.2040    7.8230    0.0780 C   0  0  0  0  0  3  0  0  0  0  0  0
    9.5090    5.3350   -0.0490 N   0  0  0  0  0  0  0  0  0  0  0  0
   10.0110    4.4650    0.8060 C   0  0  0  0  0  0  0  0  0  0  0  0
   10.5090    5.1150    1.9250 N   0  0  0  0  0  0  0  0  0  0  0  0
   10.0610    3.0240    0.5610 C   0  0  0  0  0  0  0  0  0  0  0  0
    9.4120    2.1210    1.4150 C   0  0  0  0  0  3  0  0  0  0  0  0
    9.4710    0.7480    1.1660 C   0  0  0  0  0  3  0  0  0  0  0  0
   10.1690    0.2700    0.0570 C   0  0  0  0  0  3  0  0  0  0  0  0
   10.7980    1.1630   -0.8100 C   0  0  0  0  0  3  0  0  0  0  0  0
   10.7390    2.5350   -0.5620 C   0  0  0  0  0  3  0  0  0  0  0  0
   11.2510    4.4850    3.0140 C   0  0  0  0  0  3  0  0  0  0  0  0
   12.6760    5.0430    3.1760 C   0  0  0  0  0  2  0  0  0  0  0  0
   13.4310    4.3180    4.2890 C   0  0  0  0  0  2  0  0  0  0  0  0
   12.6570    4.3450    5.6040 C   0  0  0  0  0  2  0  0  0  0  0  0
   11.2510    3.7750    5.4440 C   0  0  0  0  0  2  0  0  0  0  0  0
   10.4740    4.4910    4.3400 C   0  0  0  0  0  2  0  0  0  0  0  0
    9.8940   11.1750    0.1100 O   0  0  0  0  0  0  0  0  0  0  0  0
    8.9740   10.3380    0.3780 C   0  0  0  0  0  0  0  0  0  0  0  0
    7.7250   10.5480    0.2690 O   0  0  0  0  0  1  0  0  0  0  0  0
  1  2  1  0  0  0  0
  2  3  2  0  0  0  0
  4  9  1  0  0  0  0
  4  3  1  0  0  0  0
  5  4  2  0  0  0  0
  6  5  1  0  0  0  0
  6  1  2  0  0  0  0
  7  5  1  0  0  0  0
  7  8  2  0  0  0  0
  8  9  1  0  0  0  0
  9 16  1  0  0  0  0
 10  8  1  0  0  0  0
 10 11  1  0  0  0  0
 12 11  2  0  0  0  0
 13 12  1  0  0  0  0
 14 15  1  0  0  0  0
 14 13  2  0  0  0  0
 15 10  2  0  0  0  0
 16 17  1  0  0  0  0
 16 21  1  0  0  0  0
 17 18  1  0  0  0  0
 18 19  1  0  0  0  0
 20 19  1  0  0  0  0
 21 20  1  0  0  0  0
 22 23  2  0  0  0  0
 23  1  1  0  0  0  0
 24 23  1  0  0  0  0
M  END
>  <minimizedAffinity>
-5.88546801

$$$$

 OpenBabel09122217383D

 24 27  0  0  0  0  0  0  0  0999 V2000
    8.9900   -1.9310    2.1020 C   0  0  0  0  0  0  0  0  0  0  0  0
    9.0890   -1.0420    1.0190 C   0  0  0  0  0  3  0  0  0  0  0  0
    9.4830    0.2920    1.1810 C   0  0  0  0  0  3  0  0  0  0  0  0
    9.7800    0.7270    2.4790 C   0  0  0  0  0  0  0  0  0  0  0  0
    9.6880   -0.1250    3.5780 C   0  0  0  0  0  0  0  0  0  0  0  0
    9.2940   -1.4590    3.3940 C   0  0  0  0  0  3  0  0  0  0  0  0
   10.0230    0.5330    4.7350 N   0  0  0  0  0  0  0  0  0  0  0  0
   10.2900    1.7770    4.3880 C   0  0  0  0  0  0  0  0  0  0  0  0
   10.2050    1.9280    3.0110 N   0  0  0  0  0  0  0  0  0  0  0  0
   10.6630    2.8230    5.3410 C   0  0  0  0  0  0  0  0  0  0  0  0
    9.7060    3.7050    5.8600 C   0  0  0  0  0  3  0  0  0  0  0  0
   10.0800    4.6980    6.7680 C   0  0  0  0  0  3  0  0  0  0  0  0
   11.4110    4.8070    7.1720 C   0  0  0  0  0  3  0  0  0  0  0  0
   12.3660    3.9190    6.6770 C   0  0  0  0  0  3  0  0  0  0  0  0
   11.9910    2.9270    5.7690 C   0  0  0  0  0  3  0  0  0  0  0  0
   10.5600    3.1320    2.2650 C   0  0  0  0  0  3  0  0  0  0  0  0
   12.0760    3.2850    2.0530 C   0  0  0  0  0  2  0  0  0  0  0  0
   12.4040    4.5830    1.3150 C   0  0  0  0  0  2  0  0  0  0  0  0
   11.6320    4.6950    0.0040 C   0  0  0  0  0  2  0  0  0  0  0  0
   10.1280    4.5600    0.2200 C   0  0  0  0  0  2  0  0  0  0  0  0
    9.7760    3.2640    0.9500 C   0  0  0  0  0  2  0  0  0  0  0  0
    7.9040   -3.9250    2.8180 O   0  0  0  0  0  1  0  0  0  0  0  0
    8.5630   -3.3690    1.8820 C   0  0  0  0  0  0  0  0  0  0  0  0
    8.8920   -3.9140    0.7820 O   0  0  0  0  0  0  0  0  0  0  0  0
  1  6  1  0  0  0  0
  2  3  1  0  0  0  0
  2  1  2  0  0  0  0
  3  4  2  0  0  0  0
  4  9  1  0  0  0  0
  4  5  1  0  0  0  0
  5  7  1  0  0  0  0
  6  5  2  0  0  0  0
  8  7  2  0  0  0  0
  8 10  1  0  0  0  0
  9  8  1  0  0  0  0
 10 15  2  0  0  0  0
 10 11  1  0  0  0  0
 11 12  2  0  0  0  0
 12 13  1  0  0  0  0
 14 13  2  0  0  0  0
 15 14  1  0  0  0  0
 16  9  1  0  0  0  0
 17 16  1  0  0  0  0
 18 17  1  0  0  0  0
 19 20  1  0  0  0  0
 19 18  1  0  0  0  0
 20 21  1  0  0  0  0
 21 16  1  0  0  0  0
 23  1  1  0  0  0  0
 23 22  1  0  0  0  0
 24 23  2  0  0  0  0
M  END
>  <minimizedAffinity>
-5.66106892

$$$$

 OpenBabel09122217383D

 24 27  0  0  0  0  0  0  0  0999 V2000
    9.0450   -1.5710    2.4200 C   0  0  0  0  0  0  0  0  0  0  0  0
    9.4220   -1.1390    3.7020 C   0  0  0  0  0  3  0  0  0  0  0  0
    9.9060    0.1530    3.9440 C   0  0  0  0  0  3  0  0  0  0  0  0
   10.0100    1.0200    2.8500 C   0  0  0  0  0  0  0  0  0  0  0  0
    9.6510    0.6260    1.5630 C   0  0  0  0  0  0  0  0  0  0  0  0
    9.1650   -0.6720    1.3420 C   0  0  0  0  0  3  0  0  0  0  0  0
    9.8480    1.6460    0.6670 N   0  0  0  0  0  0  0  0  0  0  0  0
   10.3480    2.6530    1.3570 C   0  0  0  0  0  0  0  0  0  0  0  0
   10.4150    2.3330    2.7050 N   0  0  0  0  0  0  0  0  0  0  0  0
   10.7300    3.9340    0.7620 C   0  0  0  0  0  0  0  0  0  0  0  0
   12.0690    4.2240    0.4640 C   0  0  0  0  0  3  0  0  0  0  0  0
   12.4150    5.4520   -0.1020 C   0  0  0  0  0  3  0  0  0  0  0  0
   11.4250    6.3940   -0.3850 C   0  0  0  0  0  3  0  0  0  0  0  0
   10.0880    6.1040   -0.1120 C   0  0  0  0  0  3  0  0  0  0  0  0
    9.7420    4.8760    0.4540 C   0  0  0  0  0  3  0  0  0  0  0  0
   10.7940    3.2480    3.7780 C   0  0  0  0  0  3  0  0  0  0  0  0
    9.7360    3.3420    4.8920 C   0  0  0  0  0  2  0  0  0  0  0  0
   10.1500    4.3500    5.9640 C   0  0  0  0  0  2  0  0  0  0  0  0
   11.5370    4.0420    6.5210 C   0  0  0  0  0  2  0  0  0  0  0  0
   12.5860    3.9660    5.4150 C   0  0  0  0  0  2  0  0  0  0  0  0
   12.1960    2.9580    4.3350 C   0  0  0  0  0  2  0  0  0  0  0  0
    8.7860   -3.5250    1.0850 O   0  0  0  0  0  0  0  0  0  0  0  0
    8.5230   -2.9770    2.2030 C   0  0  0  0  0  0  0  0  0  0  0  0
    7.8620   -3.5070    3.1510 O   0  0  0  0  0  1  0  0  0  0  0  0
  1  2  1  0  0  0  0
  2  3  2  0  0  0  0
  4  3  1  0  0  0  0
  5  4  2  0  0  0  0
  6  5  1  0  0  0  0
  6  1  2  0  0  0  0
  7  8  2  0  0  0  0
  7  5  1  0  0  0  0
  8  9  1  0  0  0  0
  9  4  1  0  0  0  0
  9 16  1  0  0  0  0
 10  8  1  0  0  0  0
 11 10  1  0  0  0  0
 12 11  2  0  0  0  0
 13 14  2  0  0  0  0
 13 12  1  0  0  0  0
 14 15  1  0  0  0  0
 15 10  2  0  0  0  0
 16 21  1  0  0  0  0
 16 17  1  0  0  0  0
 17 18  1  0  0  0  0
 18 19  1  0  0  0  0
 20 19  1  0  0  0  0
 21 20  1  0  0  0  0
 22 23  2  0  0  0  0
 23  1  1  0  0  0  0
 23 24  1  0  0  0  0
M  END
>  <minimizedAffinity>
-5.59816551

$$$$

 OpenBabel09122217383D

 24 27  0  0  0  0  0  0  0  0999 V2000
    9.7600    6.6330   -0.0030 C   0  0  0  0  0  0  0  0  0  0  0  0
   10.4230    6.8050    1.2230 C   0  0  0  0  0  3  0  0  0  0  0  0
   10.7180    5.7290    2.0710 C   0  0  0  0  0  3  0  0  0  0  0  0
   10.3240    4.4510    1.6560 C   0  0  0  0  0  0  0  0  0  0  0  0
    9.6600    4.2420    0.4490 C   0  0  0  0  0  0  0  0  0  0  0  0
    9.3760    5.3330   -0.3870 C   0  0  0  0  0  3  0  0  0  0  0  0
    9.3780    2.9110    0.2710 N   0  0  0  0  0  0  0  0  0  0  0  0
    9.8200    2.2930    1.3480 C   0  0  0  0  0  0  0  0  0  0  0  0
   10.4540    3.1870    2.1980 N   0  0  0  0  0  0  0  0  0  0  0  0
    9.6860    0.8520    1.5700 C   0  0  0  0  0  0  0  0  0  0  0  0
    9.4550    0.3350    2.8520 C   0  0  0  0  0  3  0  0  0  0  0  0
    9.3300   -1.0420    3.0440 C   0  0  0  0  0  3  0  0  0  0  0  0
    9.4230   -1.9100    1.9560 C   0  0  0  0  0  3  0  0  0  0  0  0
    9.6310   -1.4020    0.6740 C   0  0  0  0  0  3  0  0  0  0  0  0
    9.7560   -0.0240    0.4810 C   0  0  0  0  0  3  0  0  0  0  0  0
   11.1750    2.8360    3.4190 C   0  0  0  0  0  3  0  0  0  0  0  0
   12.6660    3.2130    3.3680 C   0  0  0  0  0  2  0  0  0  0  0  0
   13.3900    2.7790    4.6420 C   0  0  0  0  0  2  0  0  0  0  0  0
   12.7070    3.3260    5.8920 C   0  0  0  0  0  2  0  0  0  0  0  0
   11.2330    2.9350    5.9470 C   0  0  0  0  0  2  0  0  0  0  0  0
   10.4870    3.3670    4.6850 C   0  0  0  0  0  2  0  0  0  0  0  0
    8.5850    8.6480   -0.4790 O   0  0  0  0  0  1  0  0  0  0  0  0
    9.4630    7.8240   -0.8920 C   0  0  0  0  0  0  0  0  0  0  0  0
   10.1090    7.9150   -1.9820 O   0  0  0  0  0  0  0  0  0  0  0  0
  1  2  1  0  0  0  0
  2  3  2  0  0  0  0
  4  3  1  0  0  0  0
  4  9  1  0  0  0  0
  5  4  2  0  0  0  0
  6  1  2  0  0  0  0
  6  5  1  0  0  0  0
  7  5  1  0  0  0  0
  7  8  2  0  0  0  0
  8 10  1  0  0  0  0
  8  9  1  0  0  0  0
  9 16  1  0  0  0  0
 10 11  1  0  0  0  0
 11 12  2  0  0  0  0
 13 12  1  0  0  0  0
 14 13  2  0  0  0  0
 15 14  1  0  0  0  0
 15 10  2  0  0  0  0
 16 21  1  0  0  0  0
 17 16  1  0  0  0  0
 17 18  1  0  0  0  0
 18 19  1  0  0  0  0
 19 20  1  0  0  0  0
 21 20  1  0  0  0  0
 23 22  1  0  0  0  0
 23  1  1  0  0  0  0
 24 23  2  0  0  0  0
M  END
>  <minimizedAffinity>
-5.53160667

$$$$

 OpenBabel09122217383D

 24 27  0  0  0  0  0  0  0  0999 V2000
   10.1060    3.6950    5.2240 C   0  0  0  0  0  0  0  0  0  0  0  0
   10.4360    4.9520    4.6920 C   0  0  0  0  0  3  0  0  0  0  0  0
   10.7550    5.1320    3.3400 C   0  0  0  0  0  3  0  0  0  0  0  0
   10.7390    4.0000    2.5150 C   0  0  0  0  0  0  0  0  0  0  0  0
   10.4220    2.7360    3.0080 C   0  0  0  0  0  0  0  0  0  0  0  0
   10.1020    2.5780    4.3650 C   0  0  0  0  0  3  0  0  0  0  0  0
   10.4800    1.7950    2.0110 N   0  0  0  0  0  0  0  0  0  0  0  0
   10.8540    2.4350    0.9200 C   0  0  0  0  0  0  0  0  0  0  0  0
   10.9730    3.7940    1.1700 N   0  0  0  0  0  0  0  0  0  0  0  0
   11.0660    1.7810   -0.3720 C   0  0  0  0  0  0  0  0  0  0  0  0
   12.1280    2.1540   -1.2070 C   0  0  0  0  0  3  0  0  0  0  0  0
   12.3140    1.5190   -2.4370 C   0  0  0  0  0  3  0  0  0  0  0  0
   11.4470    0.5010   -2.8340 C   0  0  0  0  0  3  0  0  0  0  0  0
   10.4010    0.1090   -1.9990 C   0  0  0  0  0  3  0  0  0  0  0  0
   10.2150    0.7430   -0.7690 C   0  0  0  0  0  3  0  0  0  0  0  0
   11.2420    4.8220    0.1670 C   0  0  0  0  0  3  0  0  0  0  0  0
   10.1770    5.9320    0.1410 C   0  0  0  0  0  2  0  0  0  0  0  0
   10.4710    6.9550   -0.9560 C   0  0  0  0  0  2  0  0  0  0  0  0
   11.8820    7.5230   -0.8340 C   0  0  0  0  0  2  0  0  0  0  0  0
   12.9360    6.4200   -0.8250 C   0  0  0  0  0  2  0  0  0  0  0  0
   12.6670    5.3890    0.2710 C   0  0  0  0  0  2  0  0  0  0  0  0
   10.5020    2.7710    7.3810 O   0  0  0  0  0  1  0  0  0  0  0  0
    9.7640    3.5460    6.6930 C   0  0  0  0  0  0  0  0  0  0  0  0
    8.7690    4.2030    7.1300 O   0  0  0  0  0  0  0  0  0  0  0  0
  1 23  1  0  0  0  0
  2  1  1  0  0  0  0
  3  2  2  0  0  0  0
  4  5  2  0  0  0  0
  4  3  1  0  0  0  0
  5  6  1  0  0  0  0
  6  1  2  0  0  0  0
  7  5  1  0  0  0  0
  8  9  1  0  0  0  0
  8  7  2  0  0  0  0
  9  4  1  0  0  0  0
 10  8  1  0  0  0  0
 11 10  2  0  0  0  0
 12 11  1  0  0  0  0
 13 12  2  0  0  0  0
 13 14  1  0  0  0  0
 14 15  2  0  0  0  0
 15 10  1  0  0  0  0
 16 21  1  0  0  0  0
 16  9  1  0  0  0  0
 17 16  1  0  0  0  0
 18 19  1  0  0  0  0
 18 17  1  0  0  0  0
 19 20  1  0  0  0  0
 20 21  1  0  0  0  0
 23 24  2  0  0  0  0
 23 22  1  0  0  0  0
M  END
>  <minimizedAffinity>
-5.45959568

$$$$

 OpenBabel09122217383D

 24 27  0  0  0  0  0  0  0  0999 V2000
    9.3990    9.6750    0.4560 C   0  0  0  0  0  0  0  0  0  0  0  0
    9.8290    8.7230   -0.4830 C   0  0  0  0  0  3  0  0  0  0  0  0
   10.2820    7.4530   -0.1070 C   0  0  0  0  0  3  0  0  0  0  0  0
   10.2970    7.1500    1.2610 C   0  0  0  0  0  0  0  0  0  0  0  0
    9.8830    8.0700    2.2220 C   0  0  0  0  0  0  0  0  0  0  0  0
    9.4300    9.3370    1.8230 C   0  0  0  0  0  3  0  0  0  0  0  0
    9.9960    7.5430    3.4830 N   0  0  0  0  0  0  0  0  0  0  0  0
   10.4980    6.3320    3.3340 C   0  0  0  0  0  0  0  0  0  0  0  0
   10.6480    6.0300    1.9890 N   0  0  0  0  0  0  0  0  0  0  0  0
   10.8040    5.4370    4.4500 C   0  0  0  0  0  0  0  0  0  0  0  0
   10.3840    4.1000    4.4430 C   0  0  0  0  0  3  0  0  0  0  0  0
   10.6840    3.2610    5.5180 C   0  0  0  0  0  3  0  0  0  0  0  0
   11.4160    3.7490    6.6010 C   0  0  0  0  0  3  0  0  0  0  0  0
   11.8570    5.0720    6.6050 C   0  0  0  0  0  3  0  0  0  0  0  0
   11.5570    5.9110    5.5310 C   0  0  0  0  0  3  0  0  0  0  0  0
   11.0530    4.7350    1.4480 C   0  0  0  0  0  3  0  0  0  0  0  0
    9.9930    4.1080    0.5270 C   0  0  0  0  0  2  0  0  0  0  0  0
   10.4360    2.7330    0.0280 C   0  0  0  0  0  2  0  0  0  0  0  0
   11.8070    2.7910   -0.6390 C   0  0  0  0  0  2  0  0  0  0  0  0
   12.8600    3.3970    0.2840 C   0  0  0  0  0  2  0  0  0  0  0  0
   12.4410    4.7780    0.7890 C   0  0  0  0  0  2  0  0  0  0  0  0
    7.6620   11.2600    0.0810 O   0  0  0  0  0  1  0  0  0  0  0  0
    8.9130   11.0380    0.0040 C   0  0  0  0  0  0  0  0  0  0  0  0
    9.7870   11.8590   -0.4160 O   0  0  0  0  0  0  0  0  0  0  0  0
  1  6  1  0  0  0  0
  2  3  1  0  0  0  0
  2  1  2  0  0  0  0
  3  4  2  0  0  0  0
  4  9  1  0  0  0  0
  4  5  1  0  0  0  0
  5  7  1  0  0  0  0
  6  5  2  0  0  0  0
  8  7  2  0  0  0  0
  8 10  1  0  0  0  0
  9  8  1  0  0  0  0
 10 15  1  0  0  0  0
 11 10  2  0  0  0  0
 11 12  1  0  0  0  0
 12 13  2  0  0  0  0
 13 14  1  0  0  0  0
 15 14  2  0  0  0  0
 16  9  1  0  0  0  0
 17 16  1  0  0  0  0
 18 17  1  0  0  0  0
 19 18  1  0  0  0  0
 19 20  1  0  0  0  0
 20 21  1  0  0  0  0
 21 16  1  0  0  0  0
 23 22  1  0  0  0  0
 23  1  1  0  0  0  0
 24 23  2  0  0  0  0
M  END
>  <minimizedAffinity>
-5.43954468

$$$$

 OpenBabel09122217383D

 24 27  0  0  0  0  0  0  0  0999 V2000
    8.9810   -2.1040    3.0690 C   0  0  0  0  0  0  0  0  0  0  0  0
    9.2540   -2.4950    1.7480 C   0  0  0  0  0  3  0  0  0  0  0  0
    9.6290   -1.5770    0.7590 C   0  0  0  0  0  3  0  0  0  0  0  0
    9.7240   -0.2290    1.1290 C   0  0  0  0  0  0  0  0  0  0  0  0
    9.4550    0.1970    2.4280 C   0  0  0  0  0  0  0  0  0  0  0  0
    9.0840   -0.7400    3.4050 C   0  0  0  0  0  3  0  0  0  0  0  0
    9.6120    1.5550    2.5380 N   0  0  0  0  0  0  0  0  0  0  0  0
    9.9400    1.9880    1.3360 C   0  0  0  0  0  0  0  0  0  0  0  0
   10.0710    0.9250    0.4550 N   0  0  0  0  0  0  0  0  0  0  0  0
   10.1690    3.3970    1.0160 C   0  0  0  0  0  0  0  0  0  0  0  0
   11.2440    4.1020    1.5740 C   0  0  0  0  0  3  0  0  0  0  0  0
   11.4460    5.4470    1.2570 C   0  0  0  0  0  3  0  0  0  0  0  0
   10.5830    6.0920    0.3720 C   0  0  0  0  0  3  0  0  0  0  0  0
    9.5240    5.3920   -0.2050 C   0  0  0  0  0  3  0  0  0  0  0  0
    9.3210    4.0480    0.1110 C   0  0  0  0  0  3  0  0  0  0  0  0
   10.5480    1.0170   -0.9230 C   0  0  0  0  0  3  0  0  0  0  0  0
   11.9460    1.6510   -1.0360 C   0  0  0  0  0  2  0  0  0  0  0  0
   12.3800    1.7750   -2.4960 C   0  0  0  0  0  2  0  0  0  0  0  0
   12.3020    0.4350   -3.2220 C   0  0  0  0  0  2  0  0  0  0  0  0
   10.9100   -0.1820   -3.1220 C   0  0  0  0  0  2  0  0  0  0  0  0
   10.4580   -0.3230   -1.6690 C   0  0  0  0  0  2  0  0  0  0  0  0
    9.4660   -3.4670    4.9590 O   0  0  0  0  0  1  0  0  0  0  0  0
    8.5810   -3.1310    4.1090 C   0  0  0  0  0  0  0  0  0  0  0  0
    7.3930   -3.5810    4.0590 O   0  0  0  0  0  0  0  0  0  0  0  0
  1  6  1  0  0  0  0
  1 23  1  0  0  0  0
  2  1  2  0  0  0  0
  3  4  2  0  0  0  0
  3  2  1  0  0  0  0
  4  5  1  0  0  0  0
  5  7  1  0  0  0  0
  5  6  2  0  0  0  0
  8  7  2  0  0  0  0
  9  4  1  0  0  0  0
  9  8  1  0  0  0  0
 10  8  1  0  0  0  0
 10 11  1  0  0  0  0
 12 11  2  0  0  0  0
 13 12  1  0  0  0  0
 14 15  1  0  0  0  0
 14 13  2  0  0  0  0
 15 10  2  0  0  0  0
 16  9  1  0  0  0  0
 17 16  1  0  0  0  0
 18 17  1  0  0  0  0
 19 20  1  0  0  0  0
 19 18  1  0  0  0  0
 20 21  1  0  0  0  0
 21 16  1  0  0  0  0
 23 22  1  0  0  0  0
 24 23  2  0  0  0  0
M  END
>  <minimizedAffinity>
-5.41747141

$$$$

 OpenBabel09122217383D

 24 27  0  0  0  0  0  0  0  0999 V2000
   10.5120    3.4790    0.4490 C   0  0  0  0  0  0  0  0  0  0  0  0
   11.4460    3.0270   -0.4960 C   0  0  0  0  0  3  0  0  0  0  0  0
   11.5610    1.6760   -0.8480 C   0  0  0  0  0  3  0  0  0  0  0  0
   10.7010    0.7680   -0.2170 C   0  0  0  0  0  0  0  0  0  0  0  0
    9.7650    1.1780    0.7290 C   0  0  0  0  0  0  0  0  0  0  0  0
    9.6640    2.5370    1.0660 C   0  0  0  0  0  3  0  0  0  0  0  0
    9.0490    0.1080    1.2040 N   0  0  0  0  0  0  0  0  0  0  0  0
    9.5360   -0.9590    0.6020 C   0  0  0  0  0  0  0  0  0  0  0  0
   10.5130   -0.5970   -0.3150 N   0  0  0  0  0  0  0  0  0  0  0  0
    9.0640   -2.3200    0.8540 C   0  0  0  0  0  0  0  0  0  0  0  0
    8.5060   -2.6760    2.0900 C   0  0  0  0  0  3  0  0  0  0  0  0
    8.0610   -3.9810    2.3130 C   0  0  0  0  0  3  0  0  0  0  0  0
    8.1590   -4.9340    1.2990 C   0  0  0  0  0  3  0  0  0  0  0  0
    8.6920   -4.5820    0.0590 C   0  0  0  0  0  3  0  0  0  0  0  0
    9.1370   -3.2780   -0.1640 C   0  0  0  0  0  3  0  0  0  0  0  0
   11.1750   -1.5000   -1.2520 C   0  0  0  0  0  3  0  0  0  0  0  0
   11.7570   -0.7760   -2.4790 C   0  0  0  0  0  2  0  0  0  0  0  0
   12.3920   -1.7650   -3.4560 C   0  0  0  0  0  2  0  0  0  0  0  0
   13.4320   -2.6450   -2.7690 C   0  0  0  0  0  2  0  0  0  0  0  0
   12.8480   -3.3740   -1.5630 C   0  0  0  0  0  2  0  0  0  0  0  0
   12.2130   -2.4030   -0.5680 C   0  0  0  0  0  2  0  0  0  0  0  0
    9.4670    5.6110    0.2710 O   0  0  0  0  0  0  0  0  0  0  0  0
   10.4190    4.9510    0.7980 C   0  0  0  0  0  0  0  0  0  0  0  0
   11.2950    5.4190    1.5910 O   0  0  0  0  0  1  0  0  0  0  0  0
  1 23  1  0  0  0  0
  1  6  1  0  0  0  0
  2  1  2  0  0  0  0
  3  2  1  0  0  0  0
  3  4  2  0  0  0  0
  4  5  1  0  0  0  0
  5  6  2  0  0  0  0
  5  7  1  0  0  0  0
  8 10  1  0  0  0  0
  8  7  2  0  0  0  0
  9  4  1  0  0  0  0
  9  8  1  0  0  0  0
 10 11  1  0  0  0  0
 11 12  2  0  0  0  0
 13 12  1  0  0  0  0
 14 13  2  0  0  0  0
 15 14  1  0  0  0  0
 15 10  2  0  0  0  0
 16 21  1  0  0  0  0
 16  9  1  0  0  0  0
 17 16  1  0  0  0  0
 18 19  1  0  0  0  0
 18 17  1  0  0  0  0
 19 20  1  0  0  0  0
 20 21  1  0  0  0  0
 22 23  2  0  0  0  0
 23 24  1  0  0  0  0
M  END
>  <minimizedAffinity>
-5.19976473

$$$$
