
 OpenBabel09122222393D

 24 27  0  0  0  0  0  0  0  0999 V2000
    9.0450   -1.5710    2.4200 C   0  0  0  0  0  0  0  0  0  0  0  0
    9.4220   -1.1390    3.7020 C   0  0  0  0  0  3  0  0  0  0  0  0
    9.9060    0.1530    3.9440 C   0  0  0  0  0  3  0  0  0  0  0  0
   10.0100    1.0200    2.8500 C   0  0  0  0  0  0  0  0  0  0  0  0
    9.6510    0.6260    1.5630 C   0  0  0  0  0  0  0  0  0  0  0  0
    9.1650   -0.6720    1.3420 C   0  0  0  0  0  3  0  0  0  0  0  0
    9.8480    1.6460    0.6670 N   0  0  0  0  0  0  0  0  0  0  0  0
   10.3480    2.6530    1.3570 C   0  0  0  0  0  0  0  0  0  0  0  0
   10.4150    2.3330    2.7050 N   0  0  0  0  0  0  0  0  0  0  0  0
   10.7300    3.9340    0.7620 C   0  0  0  0  0  0  0  0  0  0  0  0
   12.0690    4.2240    0.4640 C   0  0  0  0  0  3  0  0  0  0  0  0
   12.4150    5.4520   -0.1020 C   0  0  0  0  0  3  0  0  0  0  0  0
   11.4250    6.3940   -0.3850 C   0  0  0  0  0  3  0  0  0  0  0  0
   10.0880    6.1040   -0.1120 C   0  0  0  0  0  3  0  0  0  0  0  0
    9.7420    4.8760    0.4540 C   0  0  0  0  0  3  0  0  0  0  0  0
   10.7940    3.2480    3.7780 C   0  0  0  0  0  3  0  0  0  0  0  0
    9.7360    3.3420    4.8920 C   0  0  0  0  0  2  0  0  0  0  0  0
   10.1500    4.3500    5.9640 C   0  0  0  0  0  2  0  0  0  0  0  0
   11.5370    4.0420    6.5210 C   0  0  0  0  0  2  0  0  0  0  0  0
   12.5860    3.9660    5.4150 C   0  0  0  0  0  2  0  0  0  0  0  0
   12.1960    2.9580    4.3350 C   0  0  0  0  0  2  0  0  0  0  0  0
    8.7860   -3.5250    1.0850 O   0  0  0  0  0  0  0  0  0  0  0  0
    8.5230   -2.9770    2.2030 C   0  0  0  0  0  0  0  0  0  0  0  0
    7.8620   -3.5070    3.1510 O   0  0  0  0  0  1  0  0  0  0  0  0
  1  2  1  0  0  0  0
  2  3  2  0  0  0  0
  4  3  1  0  0  0  0
  5  4  2  0  0  0  0
  6  5  1  0  0  0  0
  6  1  2  0  0  0  0
  7  8  2  0  0  0  0
  7  5  1  0  0  0  0
  8  9  1  0  0  0  0
  9  4  1  0  0  0  0
  9 16  1  0  0  0  0
 10  8  1  0  0  0  0
 11 10  1  0  0  0  0
 12 11  2  0  0  0  0
 13 14  2  0  0  0  0
 13 12  1  0  0  0  0
 14 15  1  0  0  0  0
 15 10  2  0  0  0  0
 16 21  1  0  0  0  0
 16 17  1  0  0  0  0
 17 18  1  0  0  0  0
 18 19  1  0  0  0  0
 20 19  1  0  0  0  0
 21 20  1  0  0  0  0
 22 23  2  0  0  0  0
 23  1  1  0  0  0  0
 23 24  1  0  0  0  0
M  END
>  <minimizedAffinity>
-5.59816551

$$$$
