
 OpenBabel09122222393D

 24 27  0  0  0  0  0  0  0  0999 V2000
    9.2930    8.4230    0.9000 C   0  0  0  0  0  0  0  0  0  0  0  0
    9.5400    7.5530   -0.1740 C   0  0  0  0  0  3  0  0  0  0  0  0
   10.0240    6.2530    0.0130 C   0  0  0  0  0  3  0  0  0  0  0  0
   10.2630    5.8340    1.3280 C   0  0  0  0  0  0  0  0  0  0  0  0
   10.0350    6.6710    2.4180 C   0  0  0  0  0  0  0  0  0  0  0  0
    9.5470    7.9700    2.2090 C   0  0  0  0  0  3  0  0  0  0  0  0
   10.3490    6.0370    3.5940 N   0  0  0  0  0  0  0  0  0  0  0  0
   10.7940    4.8410    3.2610 C   0  0  0  0  0  0  0  0  0  0  0  0
   10.7100    4.6540    1.8890 N   0  0  0  0  0  0  0  0  0  0  0  0
   11.2650    3.8520    4.2310 C   0  0  0  0  0  0  0  0  0  0  0  0
   10.3740    2.9740    4.8630 C   0  0  0  0  0  3  0  0  0  0  0  0
   10.8420    2.0370    5.7860 C   0  0  0  0  0  3  0  0  0  0  0  0
   12.2050    1.9630    6.0750 C   0  0  0  0  0  3  0  0  0  0  0  0
   13.1020    2.8180    5.4340 C   0  0  0  0  0  3  0  0  0  0  0  0
   12.6330    3.7550    4.5110 C   0  0  0  0  0  3  0  0  0  0  0  0
   10.9920    3.4080    1.1820 C   0  0  0  0  0  3  0  0  0  0  0  0
    9.7490    2.5170    1.0100 C   0  0  0  0  0  2  0  0  0  0  0  0
   10.1010    1.2030    0.3140 C   0  0  0  0  0  2  0  0  0  0  0  0
   10.8180    1.4430   -1.0120 C   0  0  0  0  0  2  0  0  0  0  0  0
   12.0590    2.3120   -0.8350 C   0  0  0  0  0  2  0  0  0  0  0  0
   11.7280    3.6360   -0.1470 C   0  0  0  0  0  2  0  0  0  0  0  0
    9.6090   10.7750    0.7020 O   0  0  0  0  0  1  0  0  0  0  0  0
    8.7650    9.8230    0.6530 C   0  0  0  0  0  0  0  0  0  0  0  0
    7.5230    9.9450    0.4150 O   0  0  0  0  0  0  0  0  0  0  0  0
  1  6  1  0  0  0  0
  2  3  1  0  0  0  0
  2  1  2  0  0  0  0
  3  4  2  0  0  0  0
  4  9  1  0  0  0  0
  4  5  1  0  0  0  0
  5  7  1  0  0  0  0
  6  5  2  0  0  0  0
  8  7  2  0  0  0  0
  8 10  1  0  0  0  0
  9  8  1  0  0  0  0
 10 15  2  0  0  0  0
 10 11  1  0  0  0  0
 11 12  2  0  0  0  0
 12 13  1  0  0  0  0
 14 13  2  0  0  0  0
 15 14  1  0  0  0  0
 16  9  1  0  0  0  0
 17 16  1  0  0  0  0
 18 17  1  0  0  0  0
 19 20  1  0  0  0  0
 19 18  1  0  0  0  0
 20 21  1  0  0  0  0
 21 16  1  0  0  0  0
 23 22  1  0  0  0  0
 23  1  1  0  0  0  0
 24 23  2  0  0  0  0
M  END
>  <minimizedAffinity>
-6.09012938

$$$$
