
 OpenBabel09122222393D

 37 40  0  0  0  0  0  0  0  0999 V2000
    4.4030   -5.1810    7.9640 C   0  0  0  0  0  0  0  0  0  0  0  0
    3.3010   -5.9440    7.5760 C   0  0  0  0  0  0  0  0  0  0  0  0
    3.3690   -6.0680    6.1450 C   0  0  0  0  0  0  0  0  0  0  0  0
    2.5850   -6.7420    5.1820 C   0  0  0  0  0  3  0  0  0  0  0  0
    2.9330   -6.6770    3.8250 C   0  0  0  0  0  3  0  0  0  0  0  0
    4.0590   -5.9670    3.3990 C   0  0  0  0  0  0  0  0  0  0  0  0
    4.8530   -5.3180    4.3570 C   0  0  0  0  0  3  0  0  0  0  0  0
    4.4740   -5.3440    5.7070 C   0  0  0  0  0  0  0  0  0  0  0  0
    4.9950   -4.6980    6.8070 N   0  0  0  0  0  0  0  0  0  0  0  0
    5.0080   -3.3000   11.1700 C   0  0  0  0  0  0  0  0  0  0  0  0
    5.8340   -4.2040   11.8520 C   0  0  0  0  0  3  0  0  0  0  0  0
    6.1810   -5.4210   11.2640 C   0  0  0  0  0  3  0  0  0  0  0  0
    5.7070   -5.7440    9.9930 C   0  0  0  0  0  3  0  0  0  0  0  0
    4.8980   -4.8450    9.2940 C   0  0  0  0  0  0  0  0  0  0  0  0
    4.5630   -3.6250    9.8800 C   0  0  0  0  0  3  0  0  0  0  0  0
    4.5530   -2.0150   11.7990 C   0  0  0  0  0  2  0  0  0  0  0  0
    5.0860   -0.8050   11.0240 N   0  0  0  0  0  4  0  0  0  0  0  0
    6.1820   -0.1310   11.8100 C   0  0  0  0  0  1  0  0  0  0  0  0
    5.5470   -1.2000   10.1920 H   0  0  0  0  0  0  0  0  0  0  0  0
    2.6120   -0.4660   10.7470 C   0  0  0  0  0  1  0  0  0  0  0  0
    3.9990    0.1340   10.5120 C   0  0  0  0  0  3  0  0  0  0  0  0
    4.0830    1.4800   11.2350 C   0  0  0  0  0  1  0  0  0  0  0  0
    2.1990   -6.5600    8.4150 C   0  0  0  0  0  3  0  0  0  0  0  0
    2.2280   -6.1980    9.9070 C   0  0  0  0  0  2  0  0  0  0  0  0
    1.1060   -6.8990   10.6720 C   0  0  0  0  0  2  0  0  0  0  0  0
   -0.2600   -6.5950   10.0640 C   0  0  0  0  0  2  0  0  0  0  0  0
   -0.3060   -6.9520    8.5810 C   0  0  0  0  0  2  0  0  0  0  0  0
    0.8160   -6.2680    7.8030 C   0  0  0  0  0  2  0  0  0  0  0  0
    4.4130   -5.8590    1.9290 C   0  0  0  0  0  0  0  0  0  0  0  0
    4.6860   -4.7050    1.4800 O   0  0  0  0  0  1  0  0  0  0  0  0
    4.4300   -6.9480    1.2680 O   0  0  0  0  0  0  0  0  0  0  0  0
    5.9920   -3.6300    6.7340 C   0  0  0  0  0  2  0  0  0  0  0  0
    5.4210   -2.2890    7.1940 C   0  0  0  0  0  0  0  0  0  0  0  0
    6.0220   -1.6340    8.0590 O   0  0  0  0  0  0  0  0  0  0  0  0
    4.2310   -1.8160    6.6510 N   0  0  0  0  0  0  0  0  0  0  0  0
    3.4230   -2.5100    5.6540 C   0  0  0  0  0  1  0  0  0  0  0  0
    3.6270   -0.6130    7.2030 C   0  0  0  0  0  1  0  0  0  0  0  0
  1 14  1  0  0  0  0
  2  1  2  0  0  0  0
  2 23  1  0  0  0  0
  3  2  1  0  0  0  0
  4  3  2  0  0  0  0
  5  4  1  0  0  0  0
  6  5  2  0  0  0  0
  6  7  1  0  0  0  0
  7  8  2  0  0  0  0
  8  3  1  0  0  0  0
  8  9  1  0  0  0  0
  9  1  1  0  0  0  0
 10 16  1  0  0  0  0
 10 11  1  0  0  0  0
 12 11  2  0  0  0  0
 13 12  1  0  0  0  0
 14 15  1  0  0  0  0
 14 13  2  0  0  0  0
 15 10  2  0  0  0  0
 17 16  1  0  0  0  0
 17 18  1  0  0  0  0
 19 17  1  0  0  0  0
 21 20  1  0  0  0  0
 21 17  1  0  0  0  0
 21 22  1  0  0  0  0
 23 24  1  0  0  0  0
 24 25  1  0  0  0  0
 26 25  1  0  0  0  0
 27 26  1  0  0  0  0
 28 23  1  0  0  0  0
 28 27  1  0  0  0  0
 29  6  1  0  0  0  0
 30 29  1  0  0  0  0
 31 29  2  0  0  0  0
 32  9  1  0  0  0  0
 32 33  1  0  0  0  0
 33 34  2  0  0  0  0
 35 33  1  0  0  0  0
 35 37  1  0  0  0  0
 36 35  1  0  0  0  0
M  END
>  <minimizedAffinity>
-4.45048094

$$$$
