
 OpenBabel09122222393D

 37 40  0  0  0  0  0  0  0  0999 V2000
    3.5030   -5.6300    7.2890 C   0  0  0  0  0  0  0  0  0  0  0  0
    2.5690   -6.1300    6.3820 C   0  0  0  0  0  0  0  0  0  0  0  0
    3.1680   -6.0370    5.0780 C   0  0  0  0  0  0  0  0  0  0  0  0
    2.7550   -6.4130    3.7810 C   0  0  0  0  0  3  0  0  0  0  0  0
    3.6020   -6.1930    2.6850 C   0  0  0  0  0  3  0  0  0  0  0  0
    4.8650   -5.6190    2.8480 C   0  0  0  0  0  0  0  0  0  0  0  0
    5.2870   -5.2680    4.1400 C   0  0  0  0  0  3  0  0  0  0  0  0
    4.4190   -5.4440    5.2270 C   0  0  0  0  0  0  0  0  0  0  0  0
    4.5350   -5.0730    6.5490 N   0  0  0  0  0  0  0  0  0  0  0  0
    3.1790   -4.3480   10.8150 C   0  0  0  0  0  0  0  0  0  0  0  0
    3.4170   -5.5220   11.5430 C   0  0  0  0  0  3  0  0  0  0  0  0
    3.6740   -6.7220   10.8790 C   0  0  0  0  0  3  0  0  0  0  0  0
    3.6950   -6.7580    9.4850 C   0  0  0  0  0  3  0  0  0  0  0  0
    3.4790   -5.5920    8.7470 C   0  0  0  0  0  0  0  0  0  0  0  0
    3.2340   -4.3930    9.4150 C   0  0  0  0  0  3  0  0  0  0  0  0
    2.8260   -3.0560   11.4930 C   0  0  0  0  0  2  0  0  0  0  0  0
    3.6240   -1.8890   10.9000 N   0  0  0  0  0  4  0  0  0  0  0  0
    4.7900   -1.5540   11.7950 C   0  0  0  0  0  1  0  0  0  0  0  0
    4.0390   -2.2590   10.0340 H   0  0  0  0  0  0  0  0  0  0  0  0
    3.5510    0.6110   10.6570 C   0  0  0  0  0  1  0  0  0  0  0  0
    2.7690   -0.6940   10.4930 C   0  0  0  0  0  3  0  0  0  0  0  0
    2.3380   -0.8290    9.0300 C   0  0  0  0  0  1  0  0  0  0  0  0
    1.1770   -6.6830    6.6220 C   0  0  0  0  0  3  0  0  0  0  0  0
    0.5470   -6.3110    7.9720 C   0  0  0  0  0  2  0  0  0  0  0  0
   -0.8330   -6.9480    8.1360 C   0  0  0  0  0  2  0  0  0  0  0  0
   -1.7600   -6.5770    6.9810 C   0  0  0  0  0  2  0  0  0  0  0  0
   -1.1480   -6.9420    5.6320 C   0  0  0  0  0  2  0  0  0  0  0  0
    0.2370   -6.3240    5.4560 C   0  0  0  0  0  2  0  0  0  0  0  0
    5.7640   -5.3400    1.6610 C   0  0  0  0  0  0  0  0  0  0  0  0
    6.0420   -6.3170    0.9000 O   0  0  0  0  0  0  0  0  0  0  0  0
    6.1510   -4.1360    1.5120 O   0  0  0  0  0  1  0  0  0  0  0  0
    5.5780   -4.1850    7.0630 C   0  0  0  0  0  2  0  0  0  0  0  0
    5.2000   -2.7130    6.8980 C   0  0  0  0  0  0  0  0  0  0  0  0
    4.6480   -2.3390    5.8520 O   0  0  0  0  0  0  0  0  0  0  0  0
    5.4810   -1.8040    7.9120 N   0  0  0  0  0  0  0  0  0  0  0  0
    6.1510   -2.1220    9.1690 C   0  0  0  0  0  1  0  0  0  0  0  0
    5.2480   -0.3870    7.6800 C   0  0  0  0  0  1  0  0  0  0  0  0
  1 14  1  0  0  0  0
  2 23  1  0  0  0  0
  2  1  2  0  0  0  0
  3  8  1  0  0  0  0
  3  2  1  0  0  0  0
  4  3  2  0  0  0  0
  5  6  2  0  0  0  0
  5  4  1  0  0  0  0
  6  7  1  0  0  0  0
  7  8  2  0  0  0  0
  8  9  1  0  0  0  0
  9 32  1  0  0  0  0
  9  1  1  0  0  0  0
 10 16  1  0  0  0  0
 10 11  1  0  0  0  0
 12 11  2  0  0  0  0
 13 12  1  0  0  0  0
 14 15  1  0  0  0  0
 14 13  2  0  0  0  0
 15 10  2  0  0  0  0
 17 16  1  0  0  0  0
 17 18  1  0  0  0  0
 19 17  1  0  0  0  0
 21 20  1  0  0  0  0
 21 17  1  0  0  0  0
 22 21  1  0  0  0  0
 23 24  1  0  0  0  0
 24 25  1  0  0  0  0
 26 25  1  0  0  0  0
 27 26  1  0  0  0  0
 28 27  1  0  0  0  0
 28 23  1  0  0  0  0
 29  6  1  0  0  0  0
 30 29  2  0  0  0  0
 31 29  1  0  0  0  0
 33 32  1  0  0  0  0
 33 35  1  0  0  0  0
 34 33  2  0  0  0  0
 35 36  1  0  0  0  0
 37 35  1  0  0  0  0
M  END
>  <minimizedAffinity>
-2.28066373

$$$$
