
 OpenBabel09122219003D

 37 40  0  0  0  0  0  0  0  0999 V2000
    4.4030   -5.1810    7.9640 C   0  0  0  0  0  0  0  0  0  0  0  0
    3.3010   -5.9440    7.5760 C   0  0  0  0  0  0  0  0  0  0  0  0
    3.3690   -6.0680    6.1450 C   0  0  0  0  0  0  0  0  0  0  0  0
    2.5850   -6.7420    5.1820 C   0  0  0  0  0  3  0  0  0  0  0  0
    2.9330   -6.6770    3.8250 C   0  0  0  0  0  3  0  0  0  0  0  0
    4.0590   -5.9670    3.3990 C   0  0  0  0  0  0  0  0  0  0  0  0
    4.8530   -5.3180    4.3570 C   0  0  0  0  0  3  0  0  0  0  0  0
    4.4740   -5.3440    5.7070 C   0  0  0  0  0  0  0  0  0  0  0  0
    4.9950   -4.6980    6.8070 N   0  0  0  0  0  0  0  0  0  0  0  0
    5.0080   -3.3000   11.1700 C   0  0  0  0  0  0  0  0  0  0  0  0
    5.8340   -4.2040   11.8520 C   0  0  0  0  0  3  0  0  0  0  0  0
    6.1810   -5.4210   11.2640 C   0  0  0  0  0  3  0  0  0  0  0  0
    5.7070   -5.7440    9.9930 C   0  0  0  0  0  3  0  0  0  0  0  0
    4.8980   -4.8450    9.2940 C   0  0  0  0  0  0  0  0  0  0  0  0
    4.5630   -3.6250    9.8800 C   0  0  0  0  0  3  0  0  0  0  0  0
    4.5530   -2.0150   11.7990 C   0  0  0  0  0  2  0  0  0  0  0  0
    5.0860   -0.8050   11.0240 N   0  0  0  0  0  4  0  0  0  0  0  0
    6.1820   -0.1310   11.8100 C   0  0  0  0  0  1  0  0  0  0  0  0
    5.5470   -1.2000   10.1920 H   0  0  0  0  0  0  0  0  0  0  0  0
    2.6120   -0.4660   10.7470 C   0  0  0  0  0  1  0  0  0  0  0  0
    3.9990    0.1340   10.5120 C   0  0  0  0  0  3  0  0  0  0  0  0
    4.0830    1.4800   11.2350 C   0  0  0  0  0  1  0  0  0  0  0  0
    2.1990   -6.5600    8.4150 C   0  0  0  0  0  3  0  0  0  0  0  0
    2.2280   -6.1980    9.9070 C   0  0  0  0  0  2  0  0  0  0  0  0
    1.1060   -6.8990   10.6720 C   0  0  0  0  0  2  0  0  0  0  0  0
   -0.2600   -6.5950   10.0640 C   0  0  0  0  0  2  0  0  0  0  0  0
   -0.3060   -6.9520    8.5810 C   0  0  0  0  0  2  0  0  0  0  0  0
    0.8160   -6.2680    7.8030 C   0  0  0  0  0  2  0  0  0  0  0  0
    4.4130   -5.8590    1.9290 C   0  0  0  0  0  0  0  0  0  0  0  0
    4.6860   -4.7050    1.4800 O   0  0  0  0  0  1  0  0  0  0  0  0
    4.4300   -6.9480    1.2680 O   0  0  0  0  0  0  0  0  0  0  0  0
    5.9920   -3.6300    6.7340 C   0  0  0  0  0  2  0  0  0  0  0  0
    5.4210   -2.2890    7.1940 C   0  0  0  0  0  0  0  0  0  0  0  0
    6.0220   -1.6340    8.0590 O   0  0  0  0  0  0  0  0  0  0  0  0
    4.2310   -1.8160    6.6510 N   0  0  0  0  0  0  0  0  0  0  0  0
    3.4230   -2.5100    5.6540 C   0  0  0  0  0  1  0  0  0  0  0  0
    3.6270   -0.6130    7.2030 C   0  0  0  0  0  1  0  0  0  0  0  0
  1 14  1  0  0  0  0
  2  1  2  0  0  0  0
  2 23  1  0  0  0  0
  3  2  1  0  0  0  0
  4  3  2  0  0  0  0
  5  4  1  0  0  0  0
  6  5  2  0  0  0  0
  6  7  1  0  0  0  0
  7  8  2  0  0  0  0
  8  3  1  0  0  0  0
  8  9  1  0  0  0  0
  9  1  1  0  0  0  0
 10 16  1  0  0  0  0
 10 11  1  0  0  0  0
 12 11  2  0  0  0  0
 13 12  1  0  0  0  0
 14 15  1  0  0  0  0
 14 13  2  0  0  0  0
 15 10  2  0  0  0  0
 17 16  1  0  0  0  0
 17 18  1  0  0  0  0
 19 17  1  0  0  0  0
 21 20  1  0  0  0  0
 21 17  1  0  0  0  0
 21 22  1  0  0  0  0
 23 24  1  0  0  0  0
 24 25  1  0  0  0  0
 26 25  1  0  0  0  0
 27 26  1  0  0  0  0
 28 23  1  0  0  0  0
 28 27  1  0  0  0  0
 29  6  1  0  0  0  0
 30 29  1  0  0  0  0
 31 29  2  0  0  0  0
 32  9  1  0  0  0  0
 32 33  1  0  0  0  0
 33 34  2  0  0  0  0
 35 33  1  0  0  0  0
 35 37  1  0  0  0  0
 36 35  1  0  0  0  0
M  END
>  <minimizedAffinity>
-4.45048094

$$$$

 OpenBabel09122219003D

 37 40  0  0  0  0  0  0  0  0999 V2000
    3.3080   -3.8910    7.8600 C   0  0  0  0  0  0  0  0  0  0  0  0
    3.2340   -4.1180    9.2350 C   0  0  0  0  0  0  0  0  0  0  0  0
    3.6150   -2.8890    9.8770 C   0  0  0  0  0  0  0  0  0  0  0  0
    3.6970   -2.4720   11.2240 C   0  0  0  0  0  3  0  0  0  0  0  0
    4.1010   -1.1650   11.5300 C   0  0  0  0  0  3  0  0  0  0  0  0
    4.4120   -0.2480   10.5220 C   0  0  0  0  0  0  0  0  0  0  0  0
    4.3070   -0.6530    9.1830 C   0  0  0  0  0  3  0  0  0  0  0  0
    3.9500   -1.9750    8.8820 C   0  0  0  0  0  0  0  0  0  0  0  0
    3.8980   -2.6490    7.6810 N   0  0  0  0  0  0  0  0  0  0  0  0
    3.5400   -6.2190    4.9090 C   0  0  0  0  0  0  0  0  0  0  0  0
    2.1830   -6.3860    4.6000 C   0  0  0  0  0  3  0  0  0  0  0  0
    1.2050   -5.7440    5.3600 C   0  0  0  0  0  3  0  0  0  0  0  0
    1.5730   -4.9330    6.4330 C   0  0  0  0  0  3  0  0  0  0  0  0
    2.9220   -4.7410    6.7400 C   0  0  0  0  0  0  0  0  0  0  0  0
    3.8970   -5.3750    5.9710 C   0  0  0  0  0  3  0  0  0  0  0  0
    4.6170   -6.9500    4.1610 C   0  0  0  0  0  2  0  0  0  0  0  0
    5.2690   -6.0440    3.1110 N   0  0  0  0  0  4  0  0  0  0  0  0
    4.6090   -4.6890    3.1160 C   0  0  0  0  0  1  0  0  0  0  0  0
    6.2280   -5.8840    3.4500 H   0  0  0  0  0  0  0  0  0  0  0  0
    4.0210   -6.9500    1.1270 C   0  0  0  0  0  1  0  0  0  0  0  0
    5.4000   -6.6840    1.7330 C   0  0  0  0  0  3  0  0  0  0  0  0
    6.1800   -5.7600    0.7950 C   0  0  0  0  0  1  0  0  0  0  0  0
    2.8450   -5.3700    9.9960 C   0  0  0  0  0  3  0  0  0  0  0  0
    3.4940   -5.5260   11.3790 C   0  0  0  0  0  2  0  0  0  0  0  0
    3.0730   -6.8350   12.0470 C   0  0  0  0  0  2  0  0  0  0  0  0
    1.5540   -6.9510   12.1410 C   0  0  0  0  0  2  0  0  0  0  0  0
    0.8950   -6.8000   10.7730 C   0  0  0  0  0  2  0  0  0  0  0  0
    1.3140   -5.5030   10.0860 C   0  0  0  0  0  2  0  0  0  0  0  0
    4.8900    1.1520   10.8500 C   0  0  0  0  0  0  0  0  0  0  0  0
    6.1370    1.3740   10.7730 O   0  0  0  0  0  0  0  0  0  0  0  0
    3.9920    2.0010   11.1570 O   0  0  0  0  0  1  0  0  0  0  0  0
    4.4370   -2.1280    6.4240 C   0  0  0  0  0  2  0  0  0  0  0  0
    3.3770   -2.1000    5.3230 C   0  0  0  0  0  0  0  0  0  0  0  0
    3.6080   -2.6590    4.2400 O   0  0  0  0  0  0  0  0  0  0  0  0
    2.1690   -1.4430    5.5340 N   0  0  0  0  0  0  0  0  0  0  0  0
    1.7990   -0.7270    6.7510 C   0  0  0  0  0  1  0  0  0  0  0  0
    1.2350   -1.3010    4.4280 C   0  0  0  0  0  1  0  0  0  0  0  0
  1  2  2  0  0  0  0
  2  3  1  0  0  0  0
  2 23  1  0  0  0  0
  3  4  1  0  0  0  0
  4  5  2  0  0  0  0
  6 29  1  0  0  0  0
  6  5  1  0  0  0  0
  7  6  2  0  0  0  0
  8  7  1  0  0  0  0
  8  3  2  0  0  0  0
  9  1  1  0  0  0  0
  9  8  1  0  0  0  0
 10 15  1  0  0  0  0
 11 10  2  0  0  0  0
 11 12  1  0  0  0  0
 12 13  2  0  0  0  0
 13 14  1  0  0  0  0
 14  1  1  0  0  0  0
 15 14  2  0  0  0  0
 16 10  1  0  0  0  0
 17 18  1  0  0  0  0
 17 19  1  0  0  0  0
 17 16  1  0  0  0  0
 20 21  1  0  0  0  0
 21 17  1  0  0  0  0
 22 21  1  0  0  0  0
 23 28  1  0  0  0  0
 23 24  1  0  0  0  0
 24 25  1  0  0  0  0
 25 26  1  0  0  0  0
 27 26  1  0  0  0  0
 28 27  1  0  0  0  0
 29 31  1  0  0  0  0
 30 29  2  0  0  0  0
 32  9  1  0  0  0  0
 33 35  1  0  0  0  0
 33 32  1  0  0  0  0
 34 33  2  0  0  0  0
 35 36  1  0  0  0  0
 37 35  1  0  0  0  0
M  END
>  <minimizedAffinity>
-3.45955014

$$$$

 OpenBabel09122219003D

 37 40  0  0  0  0  0  0  0  0999 V2000
    3.5930   -3.3620    8.0430 C   0  0  0  0  0  0  0  0  0  0  0  0
    3.4750   -2.0020    8.3310 C   0  0  0  0  0  0  0  0  0  0  0  0
    2.6900   -1.4230    7.2740 C   0  0  0  0  0  0  0  0  0  0  0  0
    2.1960   -0.1240    7.0190 C   0  0  0  0  0  3  0  0  0  0  0  0
    1.4270    0.1200    5.8720 C   0  0  0  0  0  3  0  0  0  0  0  0
    1.1200   -0.9050    4.9730 C   0  0  0  0  0  0  0  0  0  0  0  0
    1.5890   -2.2010    5.2380 C   0  0  0  0  0  3  0  0  0  0  0  0
    2.3990   -2.4320    6.3600 C   0  0  0  0  0  0  0  0  0  0  0  0
    3.0790   -3.5580    6.7710 N   0  0  0  0  0  0  0  0  0  0  0  0
    4.0190   -6.0410   10.6560 C   0  0  0  0  0  0  0  0  0  0  0  0
    5.2850   -6.5380   10.3170 C   0  0  0  0  0  3  0  0  0  0  0  0
    5.9850   -6.0000    9.2360 C   0  0  0  0  0  3  0  0  0  0  0  0
    5.4280   -4.9650    8.4870 C   0  0  0  0  0  3  0  0  0  0  0  0
    4.1760   -4.4460    8.8250 C   0  0  0  0  0  0  0  0  0  0  0  0
    3.4840   -4.9780    9.9120 C   0  0  0  0  0  3  0  0  0  0  0  0
    3.2040   -6.6420   11.7640 C   0  0  0  0  0  2  0  0  0  0  0  0
    1.7780   -6.9480   11.2940 N   0  0  0  0  0  4  0  0  0  0  0  0
    1.7160   -6.9320    9.7870 C   0  0  0  0  0  1  0  0  0  0  0  0
    1.6080   -7.9270   11.5660 H   0  0  0  0  0  0  0  0  0  0  0  0
    1.0970   -4.6380   12.0110 C   0  0  0  0  0  1  0  0  0  0  0  0
    0.7020   -6.1160   11.9840 C   0  0  0  0  0  3  0  0  0  0  0  0
   -0.6290   -6.2570   11.2430 C   0  0  0  0  0  1  0  0  0  0  0  0
    4.0250   -1.2010    9.4950 C   0  0  0  0  0  3  0  0  0  0  0  0
    5.0860   -0.1530    9.1270 C   0  0  0  0  0  2  0  0  0  0  0  0
    5.6070    0.5700   10.3690 C   0  0  0  0  0  2  0  0  0  0  0  0
    4.4690    1.2030   11.1660 C   0  0  0  0  0  2  0  0  0  0  0  0
    3.4070    0.1740   11.5400 C   0  0  0  0  0  2  0  0  0  0  0  0
    2.8840   -0.5670   10.3120 C   0  0  0  0  0  2  0  0  0  0  0  0
    0.3260   -0.6350    3.7110 C   0  0  0  0  0  0  0  0  0  0  0  0
   -0.8890   -0.2970    3.8490 O   0  0  0  0  0  1  0  0  0  0  0  0
    0.9540   -0.7500    2.6090 O   0  0  0  0  0  0  0  0  0  0  0  0
    3.2560   -4.7540    5.9480 C   0  0  0  0  0  2  0  0  0  0  0  0
    4.3260   -4.5500    4.8750 C   0  0  0  0  0  0  0  0  0  0  0  0
    4.9920   -3.5040    4.8700 O   0  0  0  0  0  0  0  0  0  0  0  0
    4.5420   -5.5290    3.9110 N   0  0  0  0  0  0  0  0  0  0  0  0
    3.8020   -6.7820    3.8000 C   0  0  0  0  0  1  0  0  0  0  0  0
    5.4590   -5.2560    2.8150 C   0  0  0  0  0  1  0  0  0  0  0  0
  1  2  2  0  0  0  0
  1 14  1  0  0  0  0
  2 23  1  0  0  0  0
  3  2  1  0  0  0  0
  4  3  1  0  0  0  0
  5  4  2  0  0  0  0
  6  7  2  0  0  0  0
  6  5  1  0  0  0  0
  7  8  1  0  0  0  0
  8  9  1  0  0  0  0
  8  3  2  0  0  0  0
  9  1  1  0  0  0  0
 10 16  1  0  0  0  0
 11 10  1  0  0  0  0
 12 11  2  0  0  0  0
 13 14  2  0  0  0  0
 13 12  1  0  0  0  0
 14 15  1  0  0  0  0
 15 10  2  0  0  0  0
 17 19  1  0  0  0  0
 17 16  1  0  0  0  0
 17 21  1  0  0  0  0
 18 17  1  0  0  0  0
 21 20  1  0  0  0  0
 22 21  1  0  0  0  0
 23 28  1  0  0  0  0
 24 23  1  0  0  0  0
 24 25  1  0  0  0  0
 25 26  1  0  0  0  0
 26 27  1  0  0  0  0
 28 27  1  0  0  0  0
 29 30  1  0  0  0  0
 29  6  1  0  0  0  0
 31 29  2  0  0  0  0
 32  9  1  0  0  0  0
 33 32  1  0  0  0  0
 34 33  2  0  0  0  0
 35 33  1  0  0  0  0
 36 35  1  0  0  0  0
 37 35  1  0  0  0  0
M  END
>  <minimizedAffinity>
-3.3598249

$$$$

 OpenBabel09122219003D

 37 40  0  0  0  0  0  0  0  0999 V2000
    4.1550   -3.6560    6.5540 C   0  0  0  0  0  0  0  0  0  0  0  0
    4.1560   -5.0490    6.6250 C   0  0  0  0  0  0  0  0  0  0  0  0
    4.3010   -5.5300    5.2770 C   0  0  0  0  0  0  0  0  0  0  0  0
    4.4120   -6.8160    4.7020 C   0  0  0  0  0  3  0  0  0  0  0  0
    4.5600   -6.9520    3.3150 C   0  0  0  0  0  3  0  0  0  0  0  0
    4.6180   -5.8350    2.4780 C   0  0  0  0  0  0  0  0  0  0  0  0
    4.5330   -4.5560    3.0500 C   0  0  0  0  0  3  0  0  0  0  0  0
    4.3360   -4.4240    4.4330 C   0  0  0  0  0  0  0  0  0  0  0  0
    4.0980   -3.3130    5.2120 N   0  0  0  0  0  0  0  0  0  0  0  0
    2.9970   -1.4840    9.4040 C   0  0  0  0  0  0  0  0  0  0  0  0
    4.1620   -0.7500    9.6650 C   0  0  0  0  0  3  0  0  0  0  0  0
    5.3170   -0.9750    8.9140 C   0  0  0  0  0  3  0  0  0  0  0  0
    5.3170   -1.9320    7.9000 C   0  0  0  0  0  3  0  0  0  0  0  0
    4.1570   -2.6560    7.6160 C   0  0  0  0  0  0  0  0  0  0  0  0
    3.0020   -2.4210    8.3610 C   0  0  0  0  0  3  0  0  0  0  0  0
    1.7580   -1.3230   10.2370 C   0  0  0  0  0  2  0  0  0  0  0  0
    2.0590   -1.5600   11.7210 N   0  0  0  0  0  4  0  0  0  0  0  0
    3.2580   -0.7470   12.1410 C   0  0  0  0  0  1  0  0  0  0  0  0
    1.2600   -1.1530   12.2270 H   0  0  0  0  0  0  0  0  0  0  0  0
    1.1540   -3.8590   11.2630 C   0  0  0  0  0  1  0  0  0  0  0  0
    2.1160   -3.0310   12.1170 C   0  0  0  0  0  3  0  0  0  0  0  0
    3.5350   -3.5730   11.9260 C   0  0  0  0  0  1  0  0  0  0  0  0
    4.0340   -5.9640    7.8270 C   0  0  0  0  0  3  0  0  0  0  0  0
    5.0430   -5.7040    8.9560 C   0  0  0  0  0  2  0  0  0  0  0  0
    4.8660   -6.7010   10.1010 C   0  0  0  0  0  2  0  0  0  0  0  0
    3.4360   -6.6910   10.6350 C   0  0  0  0  0  2  0  0  0  0  0  0
    2.4220   -6.9510    9.5250 C   0  0  0  0  0  2  0  0  0  0  0  0
    2.5920   -5.9700    8.3670 C   0  0  0  0  0  2  0  0  0  0  0  0
    4.7350   -5.9800    0.9740 C   0  0  0  0  0  0  0  0  0  0  0  0
    5.5700   -6.8280    0.5350 O   0  0  0  0  0  1  0  0  0  0  0  0
    3.9640   -5.2490    0.2720 O   0  0  0  0  0  0  0  0  0  0  0  0
    3.7870   -1.9880    4.6770 C   0  0  0  0  0  2  0  0  0  0  0  0
    2.3100   -1.8590    4.3060 C   0  0  0  0  0  0  0  0  0  0  0  0
    1.8610   -2.5150    3.3540 O   0  0  0  0  0  0  0  0  0  0  0  0
    1.4820   -1.0040    5.0270 N   0  0  0  0  0  0  0  0  0  0  0  0
    1.9030   -0.1630    6.1420 C   0  0  0  0  0  1  0  0  0  0  0  0
    0.1190   -0.7840    4.5700 C   0  0  0  0  0  1  0  0  0  0  0  0
  1  2  2  0  0  0  0
  1 14  1  0  0  0  0
  2 23  1  0  0  0  0
  3  2  1  0  0  0  0
  4  3  1  0  0  0  0
  5  4  2  0  0  0  0
  6  7  2  0  0  0  0
  6  5  1  0  0  0  0
  7  8  1  0  0  0  0
  8  9  1  0  0  0  0
  8  3  2  0  0  0  0
  9  1  1  0  0  0  0
 10 11  1  0  0  0  0
 10 16  1  0  0  0  0
 12 11  2  0  0  0  0
 13 12  1  0  0  0  0
 14 13  2  0  0  0  0
 14 15  1  0  0  0  0
 15 10  2  0  0  0  0
 16 17  1  0  0  0  0
 17 21  1  0  0  0  0
 17 18  1  0  0  0  0
 17 19  1  0  0  0  0
 20 21  1  0  0  0  0
 22 21  1  0  0  0  0
 23 28  1  0  0  0  0
 23 24  1  0  0  0  0
 24 25  1  0  0  0  0
 25 26  1  0  0  0  0
 27 26  1  0  0  0  0
 28 27  1  0  0  0  0
 29  6  1  0  0  0  0
 30 29  1  0  0  0  0
 31 29  2  0  0  0  0
 32  9  1  0  0  0  0
 33 32  1  0  0  0  0
 33 35  1  0  0  0  0
 34 33  2  0  0  0  0
 35 36  1  0  0  0  0
 37 35  1  0  0  0  0
M  END
>  <minimizedAffinity>
-2.47323632

$$$$

 OpenBabel09122219003D

 37 40  0  0  0  0  0  0  0  0999 V2000
    3.5030   -5.6300    7.2890 C   0  0  0  0  0  0  0  0  0  0  0  0
    2.5690   -6.1300    6.3820 C   0  0  0  0  0  0  0  0  0  0  0  0
    3.1680   -6.0370    5.0780 C   0  0  0  0  0  0  0  0  0  0  0  0
    2.7550   -6.4130    3.7810 C   0  0  0  0  0  3  0  0  0  0  0  0
    3.6020   -6.1930    2.6850 C   0  0  0  0  0  3  0  0  0  0  0  0
    4.8650   -5.6190    2.8480 C   0  0  0  0  0  0  0  0  0  0  0  0
    5.2870   -5.2680    4.1400 C   0  0  0  0  0  3  0  0  0  0  0  0
    4.4190   -5.4440    5.2270 C   0  0  0  0  0  0  0  0  0  0  0  0
    4.5350   -5.0730    6.5490 N   0  0  0  0  0  0  0  0  0  0  0  0
    3.1790   -4.3480   10.8150 C   0  0  0  0  0  0  0  0  0  0  0  0
    3.4170   -5.5220   11.5430 C   0  0  0  0  0  3  0  0  0  0  0  0
    3.6740   -6.7220   10.8790 C   0  0  0  0  0  3  0  0  0  0  0  0
    3.6950   -6.7580    9.4850 C   0  0  0  0  0  3  0  0  0  0  0  0
    3.4790   -5.5920    8.7470 C   0  0  0  0  0  0  0  0  0  0  0  0
    3.2340   -4.3930    9.4150 C   0  0  0  0  0  3  0  0  0  0  0  0
    2.8260   -3.0560   11.4930 C   0  0  0  0  0  2  0  0  0  0  0  0
    3.6240   -1.8890   10.9000 N   0  0  0  0  0  4  0  0  0  0  0  0
    4.7900   -1.5540   11.7950 C   0  0  0  0  0  1  0  0  0  0  0  0
    4.0390   -2.2590   10.0340 H   0  0  0  0  0  0  0  0  0  0  0  0
    3.5510    0.6110   10.6570 C   0  0  0  0  0  1  0  0  0  0  0  0
    2.7690   -0.6940   10.4930 C   0  0  0  0  0  3  0  0  0  0  0  0
    2.3380   -0.8290    9.0300 C   0  0  0  0  0  1  0  0  0  0  0  0
    1.1770   -6.6830    6.6220 C   0  0  0  0  0  3  0  0  0  0  0  0
    0.5470   -6.3110    7.9720 C   0  0  0  0  0  2  0  0  0  0  0  0
   -0.8330   -6.9480    8.1360 C   0  0  0  0  0  2  0  0  0  0  0  0
   -1.7600   -6.5770    6.9810 C   0  0  0  0  0  2  0  0  0  0  0  0
   -1.1480   -6.9420    5.6320 C   0  0  0  0  0  2  0  0  0  0  0  0
    0.2370   -6.3240    5.4560 C   0  0  0  0  0  2  0  0  0  0  0  0
    5.7640   -5.3400    1.6610 C   0  0  0  0  0  0  0  0  0  0  0  0
    6.0420   -6.3170    0.9000 O   0  0  0  0  0  0  0  0  0  0  0  0
    6.1510   -4.1360    1.5120 O   0  0  0  0  0  1  0  0  0  0  0  0
    5.5780   -4.1850    7.0630 C   0  0  0  0  0  2  0  0  0  0  0  0
    5.2000   -2.7130    6.8980 C   0  0  0  0  0  0  0  0  0  0  0  0
    4.6480   -2.3390    5.8520 O   0  0  0  0  0  0  0  0  0  0  0  0
    5.4810   -1.8040    7.9120 N   0  0  0  0  0  0  0  0  0  0  0  0
    6.1510   -2.1220    9.1690 C   0  0  0  0  0  1  0  0  0  0  0  0
    5.2480   -0.3870    7.6800 C   0  0  0  0  0  1  0  0  0  0  0  0
  1 14  1  0  0  0  0
  2 23  1  0  0  0  0
  2  1  2  0  0  0  0
  3  8  1  0  0  0  0
  3  2  1  0  0  0  0
  4  3  2  0  0  0  0
  5  6  2  0  0  0  0
  5  4  1  0  0  0  0
  6  7  1  0  0  0  0
  7  8  2  0  0  0  0
  8  9  1  0  0  0  0
  9 32  1  0  0  0  0
  9  1  1  0  0  0  0
 10 16  1  0  0  0  0
 10 11  1  0  0  0  0
 12 11  2  0  0  0  0
 13 12  1  0  0  0  0
 14 15  1  0  0  0  0
 14 13  2  0  0  0  0
 15 10  2  0  0  0  0
 17 16  1  0  0  0  0
 17 18  1  0  0  0  0
 19 17  1  0  0  0  0
 21 20  1  0  0  0  0
 21 17  1  0  0  0  0
 22 21  1  0  0  0  0
 23 24  1  0  0  0  0
 24 25  1  0  0  0  0
 26 25  1  0  0  0  0
 27 26  1  0  0  0  0
 28 27  1  0  0  0  0
 28 23  1  0  0  0  0
 29  6  1  0  0  0  0
 30 29  2  0  0  0  0
 31 29  1  0  0  0  0
 33 32  1  0  0  0  0
 33 35  1  0  0  0  0
 34 33  2  0  0  0  0
 35 36  1  0  0  0  0
 37 35  1  0  0  0  0
M  END
>  <minimizedAffinity>
-2.28066373

$$$$
