
 OpenBabel09122222393D

 37 40  0  0  0  0  0  0  0  0999 V2000
    3.5930   -3.3620    8.0430 C   0  0  0  0  0  0  0  0  0  0  0  0
    3.4750   -2.0020    8.3310 C   0  0  0  0  0  0  0  0  0  0  0  0
    2.6900   -1.4230    7.2740 C   0  0  0  0  0  0  0  0  0  0  0  0
    2.1960   -0.1240    7.0190 C   0  0  0  0  0  3  0  0  0  0  0  0
    1.4270    0.1200    5.8720 C   0  0  0  0  0  3  0  0  0  0  0  0
    1.1200   -0.9050    4.9730 C   0  0  0  0  0  0  0  0  0  0  0  0
    1.5890   -2.2010    5.2380 C   0  0  0  0  0  3  0  0  0  0  0  0
    2.3990   -2.4320    6.3600 C   0  0  0  0  0  0  0  0  0  0  0  0
    3.0790   -3.5580    6.7710 N   0  0  0  0  0  0  0  0  0  0  0  0
    4.0190   -6.0410   10.6560 C   0  0  0  0  0  0  0  0  0  0  0  0
    5.2850   -6.5380   10.3170 C   0  0  0  0  0  3  0  0  0  0  0  0
    5.9850   -6.0000    9.2360 C   0  0  0  0  0  3  0  0  0  0  0  0
    5.4280   -4.9650    8.4870 C   0  0  0  0  0  3  0  0  0  0  0  0
    4.1760   -4.4460    8.8250 C   0  0  0  0  0  0  0  0  0  0  0  0
    3.4840   -4.9780    9.9120 C   0  0  0  0  0  3  0  0  0  0  0  0
    3.2040   -6.6420   11.7640 C   0  0  0  0  0  2  0  0  0  0  0  0
    1.7780   -6.9480   11.2940 N   0  0  0  0  0  4  0  0  0  0  0  0
    1.7160   -6.9320    9.7870 C   0  0  0  0  0  1  0  0  0  0  0  0
    1.6080   -7.9270   11.5660 H   0  0  0  0  0  0  0  0  0  0  0  0
    1.0970   -4.6380   12.0110 C   0  0  0  0  0  1  0  0  0  0  0  0
    0.7020   -6.1160   11.9840 C   0  0  0  0  0  3  0  0  0  0  0  0
   -0.6290   -6.2570   11.2430 C   0  0  0  0  0  1  0  0  0  0  0  0
    4.0250   -1.2010    9.4950 C   0  0  0  0  0  3  0  0  0  0  0  0
    5.0860   -0.1530    9.1270 C   0  0  0  0  0  2  0  0  0  0  0  0
    5.6070    0.5700   10.3690 C   0  0  0  0  0  2  0  0  0  0  0  0
    4.4690    1.2030   11.1660 C   0  0  0  0  0  2  0  0  0  0  0  0
    3.4070    0.1740   11.5400 C   0  0  0  0  0  2  0  0  0  0  0  0
    2.8840   -0.5670   10.3120 C   0  0  0  0  0  2  0  0  0  0  0  0
    0.3260   -0.6350    3.7110 C   0  0  0  0  0  0  0  0  0  0  0  0
   -0.8890   -0.2970    3.8490 O   0  0  0  0  0  1  0  0  0  0  0  0
    0.9540   -0.7500    2.6090 O   0  0  0  0  0  0  0  0  0  0  0  0
    3.2560   -4.7540    5.9480 C   0  0  0  0  0  2  0  0  0  0  0  0
    4.3260   -4.5500    4.8750 C   0  0  0  0  0  0  0  0  0  0  0  0
    4.9920   -3.5040    4.8700 O   0  0  0  0  0  0  0  0  0  0  0  0
    4.5420   -5.5290    3.9110 N   0  0  0  0  0  0  0  0  0  0  0  0
    3.8020   -6.7820    3.8000 C   0  0  0  0  0  1  0  0  0  0  0  0
    5.4590   -5.2560    2.8150 C   0  0  0  0  0  1  0  0  0  0  0  0
  1  2  2  0  0  0  0
  1 14  1  0  0  0  0
  2 23  1  0  0  0  0
  3  2  1  0  0  0  0
  4  3  1  0  0  0  0
  5  4  2  0  0  0  0
  6  7  2  0  0  0  0
  6  5  1  0  0  0  0
  7  8  1  0  0  0  0
  8  9  1  0  0  0  0
  8  3  2  0  0  0  0
  9  1  1  0  0  0  0
 10 16  1  0  0  0  0
 11 10  1  0  0  0  0
 12 11  2  0  0  0  0
 13 14  2  0  0  0  0
 13 12  1  0  0  0  0
 14 15  1  0  0  0  0
 15 10  2  0  0  0  0
 17 19  1  0  0  0  0
 17 16  1  0  0  0  0
 17 21  1  0  0  0  0
 18 17  1  0  0  0  0
 21 20  1  0  0  0  0
 22 21  1  0  0  0  0
 23 28  1  0  0  0  0
 24 23  1  0  0  0  0
 24 25  1  0  0  0  0
 25 26  1  0  0  0  0
 26 27  1  0  0  0  0
 28 27  1  0  0  0  0
 29 30  1  0  0  0  0
 29  6  1  0  0  0  0
 31 29  2  0  0  0  0
 32  9  1  0  0  0  0
 33 32  1  0  0  0  0
 34 33  2  0  0  0  0
 35 33  1  0  0  0  0
 36 35  1  0  0  0  0
 37 35  1  0  0  0  0
M  END
>  <minimizedAffinity>
-3.3598249

$$$$
