
 OpenBabel09122222393D

 37 40  0  0  0  0  0  0  0  0999 V2000
    3.3080   -3.8910    7.8600 C   0  0  0  0  0  0  0  0  0  0  0  0
    3.2340   -4.1180    9.2350 C   0  0  0  0  0  0  0  0  0  0  0  0
    3.6150   -2.8890    9.8770 C   0  0  0  0  0  0  0  0  0  0  0  0
    3.6970   -2.4720   11.2240 C   0  0  0  0  0  3  0  0  0  0  0  0
    4.1010   -1.1650   11.5300 C   0  0  0  0  0  3  0  0  0  0  0  0
    4.4120   -0.2480   10.5220 C   0  0  0  0  0  0  0  0  0  0  0  0
    4.3070   -0.6530    9.1830 C   0  0  0  0  0  3  0  0  0  0  0  0
    3.9500   -1.9750    8.8820 C   0  0  0  0  0  0  0  0  0  0  0  0
    3.8980   -2.6490    7.6810 N   0  0  0  0  0  0  0  0  0  0  0  0
    3.5400   -6.2190    4.9090 C   0  0  0  0  0  0  0  0  0  0  0  0
    2.1830   -6.3860    4.6000 C   0  0  0  0  0  3  0  0  0  0  0  0
    1.2050   -5.7440    5.3600 C   0  0  0  0  0  3  0  0  0  0  0  0
    1.5730   -4.9330    6.4330 C   0  0  0  0  0  3  0  0  0  0  0  0
    2.9220   -4.7410    6.7400 C   0  0  0  0  0  0  0  0  0  0  0  0
    3.8970   -5.3750    5.9710 C   0  0  0  0  0  3  0  0  0  0  0  0
    4.6170   -6.9500    4.1610 C   0  0  0  0  0  2  0  0  0  0  0  0
    5.2690   -6.0440    3.1110 N   0  0  0  0  0  4  0  0  0  0  0  0
    4.6090   -4.6890    3.1160 C   0  0  0  0  0  1  0  0  0  0  0  0
    6.2280   -5.8840    3.4500 H   0  0  0  0  0  0  0  0  0  0  0  0
    4.0210   -6.9500    1.1270 C   0  0  0  0  0  1  0  0  0  0  0  0
    5.4000   -6.6840    1.7330 C   0  0  0  0  0  3  0  0  0  0  0  0
    6.1800   -5.7600    0.7950 C   0  0  0  0  0  1  0  0  0  0  0  0
    2.8450   -5.3700    9.9960 C   0  0  0  0  0  3  0  0  0  0  0  0
    3.4940   -5.5260   11.3790 C   0  0  0  0  0  2  0  0  0  0  0  0
    3.0730   -6.8350   12.0470 C   0  0  0  0  0  2  0  0  0  0  0  0
    1.5540   -6.9510   12.1410 C   0  0  0  0  0  2  0  0  0  0  0  0
    0.8950   -6.8000   10.7730 C   0  0  0  0  0  2  0  0  0  0  0  0
    1.3140   -5.5030   10.0860 C   0  0  0  0  0  2  0  0  0  0  0  0
    4.8900    1.1520   10.8500 C   0  0  0  0  0  0  0  0  0  0  0  0
    6.1370    1.3740   10.7730 O   0  0  0  0  0  0  0  0  0  0  0  0
    3.9920    2.0010   11.1570 O   0  0  0  0  0  1  0  0  0  0  0  0
    4.4370   -2.1280    6.4240 C   0  0  0  0  0  2  0  0  0  0  0  0
    3.3770   -2.1000    5.3230 C   0  0  0  0  0  0  0  0  0  0  0  0
    3.6080   -2.6590    4.2400 O   0  0  0  0  0  0  0  0  0  0  0  0
    2.1690   -1.4430    5.5340 N   0  0  0  0  0  0  0  0  0  0  0  0
    1.7990   -0.7270    6.7510 C   0  0  0  0  0  1  0  0  0  0  0  0
    1.2350   -1.3010    4.4280 C   0  0  0  0  0  1  0  0  0  0  0  0
  1  2  2  0  0  0  0
  2  3  1  0  0  0  0
  2 23  1  0  0  0  0
  3  4  1  0  0  0  0
  4  5  2  0  0  0  0
  6 29  1  0  0  0  0
  6  5  1  0  0  0  0
  7  6  2  0  0  0  0
  8  7  1  0  0  0  0
  8  3  2  0  0  0  0
  9  1  1  0  0  0  0
  9  8  1  0  0  0  0
 10 15  1  0  0  0  0
 11 10  2  0  0  0  0
 11 12  1  0  0  0  0
 12 13  2  0  0  0  0
 13 14  1  0  0  0  0
 14  1  1  0  0  0  0
 15 14  2  0  0  0  0
 16 10  1  0  0  0  0
 17 18  1  0  0  0  0
 17 19  1  0  0  0  0
 17 16  1  0  0  0  0
 20 21  1  0  0  0  0
 21 17  1  0  0  0  0
 22 21  1  0  0  0  0
 23 28  1  0  0  0  0
 23 24  1  0  0  0  0
 24 25  1  0  0  0  0
 25 26  1  0  0  0  0
 27 26  1  0  0  0  0
 28 27  1  0  0  0  0
 29 31  1  0  0  0  0
 30 29  2  0  0  0  0
 32  9  1  0  0  0  0
 33 35  1  0  0  0  0
 33 32  1  0  0  0  0
 34 33  2  0  0  0  0
 35 36  1  0  0  0  0
 37 35  1  0  0  0  0
M  END
>  <minimizedAffinity>
-3.45955014

$$$$
