
 OpenBabel08152212323D

 33 36  0  0  0  0  0  0  0  0999 V2000
  -16.3420  -14.5320   10.0330 C   0  0  0  0  0  0  0  0  0  0  0  0
  -17.5140  -14.8350    9.3490 C   0  0  0  0  0  0  0  0  0  0  0  0
  -18.1560  -13.6720    9.0110 O   0  0  0  0  0  0  0  0  0  0  0  0
  -17.3950  -12.6380    9.4420 C   0  0  0  0  0  0  0  0  0  0  0  0
  -17.6990  -11.2940    9.2790 C   0  0  0  0  0  3  0  0  0  0  0  0
  -16.7780  -10.3610    9.7890 C   0  0  0  0  0  0  0  0  0  0  0  0
  -15.5620  -10.7540   10.4130 C   0  0  0  0  0  0  0  0  0  0  0  0
  -15.3310  -12.1500   10.5400 C   0  0  0  0  0  3  0  0  0  0  0  0
  -16.2560  -13.1040   10.0680 C   0  0  0  0  0  0  0  0  0  0  0  0
  -18.2140  -16.0570    8.9480 C   0  0  0  0  0  0  0  0  0  0  0  0
  -19.3710  -15.9850    8.1530 C   0  0  0  0  0  3  0  0  0  0  0  0
  -20.0550  -17.1400    7.7660 C   0  0  0  0  0  3  0  0  0  0  0  0
  -19.5850  -18.3800    8.1750 C   0  0  0  0  0  0  0  0  0  0  0  0
  -20.2390  -19.4900    7.8060 F   0  0  0  0  0  0  0  0  0  0  0  0
  -18.4470  -18.4830    8.9620 C   0  0  0  0  0  3  0  0  0  0  0  0
  -17.7650  -17.3260    9.3500 C   0  0  0  0  0  3  0  0  0  0  0  0
  -16.2870  -15.3210   12.8880 C   0  0  0  0  0  1  0  0  0  0  0  0
  -15.3610  -15.7610   11.8720 N   0  0  0  0  0  0  0  0  0  0  0  0
  -15.3820  -15.4930   10.5260 C   0  0  0  0  0  0  0  0  0  0  0  0
  -14.6020  -16.0840    9.7850 O   0  0  0  0  0  0  0  0  0  0  0  0
  -14.6290  -16.4080   12.1370 H   0  0  0  0  0  0  0  0  0  0  0  0
  -14.5260   -9.7510   10.9220 C   0  0  0  0  0  3  0  0  0  0  0  0
  -14.3190   -9.5390   12.4040 C   0  0  0  0  0  2  0  0  0  0  0  0
  -13.2420  -10.1910   11.5860 C   0  0  0  0  0  2  0  0  0  0  0  0
  -17.1680   -8.9840    9.5940 N   0  0  0  0  0  0  0  0  0  0  0  0
  -17.3080   -8.4200    7.9980 S   0  0  0  0  0  0  0  0  0  0  0  0
  -15.6210   -8.4620    7.4230 C   0  0  0  0  0  1  0  0  0  0  0  0
  -18.0840   -9.3490    7.2070 O   0  0  0  0  0  0  0  0  0  0  0  0
  -17.6900   -7.0220    8.0780 O   0  0  0  0  0  0  0  0  0  0  0  0
  -18.1060   -8.4080   10.6060 C   0  0  0  0  0  2  0  0  0  0  0  0
  -17.3630   -7.4380   11.5320 C   0  0  0  0  0  2  0  0  0  0  0  0
  -17.3970   -7.8480   12.8950 O   0  0  0  0  0  0  0  0  0  0  0  0
  -18.3060   -8.1590   13.1020 H   0  0  0  0  0  0  0  0  0  0  0  0
  1  9  1  0  0  0  0
  1 19  1  0  0  0  0
  2  1  2  0  0  0  0
  3  2  1  0  0  0  0
  3  4  1  0  0  0  0
  4  9  1  0  0  0  0
  5  4  2  0  0  0  0
  5  6  1  0  0  0  0
  6  7  2  0  0  0  0
  7  8  1  0  0  0  0
  7 22  1  0  0  0  0
  9  8  2  0  0  0  0
 10  2  1  0  0  0  0
 10 16  1  0  0  0  0
 11 10  2  0  0  0  0
 12 11  1  0  0  0  0
 12 13  2  0  0  0  0
 13 15  1  0  0  0  0
 14 13  1  0  0  0  0
 15 16  2  0  0  0  0
 18 21  1  0  0  0  0
 18 17  1  0  0  0  0
 19 18  1  0  0  0  0
 20 19  2  0  0  0  0
 22 24  1  0  0  0  0
 22 23  1  0  0  0  0
 24 23  1  0  0  0  0
 25  6  1  0  0  0  0
 25 30  1  0  0  0  0
 26 29  2  0  0  0  0
 26 25  1  0  0  0  0
 27 26  1  0  0  0  0
 28 26  2  0  0  0  0
 30 31  1  0  0  0  0
 31 32  1  0  0  0  0
 32 33  1  0  0  0  0
M  END
>  <minimizedAffinity>
-9.24324894

$$$$
