
 OpenBabel08152212323D

 33 36  0  0  0  0  0  0  0  0999 V2000
  -16.1360  -14.6570   10.3590 C   0  0  0  0  0  0  0  0  0  0  0  0
  -17.2420  -15.0320    9.6050 C   0  0  0  0  0  0  0  0  0  0  0  0
  -17.8210  -13.9140    9.0610 O   0  0  0  0  0  0  0  0  0  0  0  0
  -17.0830  -12.8410    9.4340 C   0  0  0  0  0  0  0  0  0  0  0  0
  -17.3370  -11.5260    9.0740 C   0  0  0  0  0  3  0  0  0  0  0  0
  -16.4500  -10.5460    9.5540 C   0  0  0  0  0  0  0  0  0  0  0  0
  -15.3100  -10.8700   10.3410 C   0  0  0  0  0  0  0  0  0  0  0  0
  -15.1260  -12.2410   10.6630 C   0  0  0  0  0  3  0  0  0  0  0  0
  -16.0210  -13.2370   10.2240 C   0  0  0  0  0  0  0  0  0  0  0  0
  -17.9270  -16.2870    9.2920 C   0  0  0  0  0  0  0  0  0  0  0  0
  -19.2810  -16.2820    8.9100 C   0  0  0  0  0  3  0  0  0  0  0  0
  -19.9520  -17.4710    8.6140 C   0  0  0  0  0  3  0  0  0  0  0  0
  -19.2720  -18.6770    8.6980 C   0  0  0  0  0  0  0  0  0  0  0  0
  -19.9130  -19.8200    8.4150 F   0  0  0  0  0  0  0  0  0  0  0  0
  -17.9370  -18.7150    9.0740 C   0  0  0  0  0  3  0  0  0  0  0  0
  -17.2670  -17.5240    9.3710 C   0  0  0  0  0  3  0  0  0  0  0  0
  -16.6100  -15.3710   13.1960 C   0  0  0  0  0  1  0  0  0  0  0  0
  -15.4840  -15.7900   12.3950 N   0  0  0  0  0  0  0  0  0  0  0  0
  -15.2520  -15.5580   11.0630 C   0  0  0  0  0  0  0  0  0  0  0  0
  -14.3170  -16.1280   10.5080 O   0  0  0  0  0  0  0  0  0  0  0  0
  -14.7920  -16.3950   12.8190 H   0  0  0  0  0  0  0  0  0  0  0  0
  -14.3070   -9.8200   10.8220 C   0  0  0  0  0  3  0  0  0  0  0  0
  -14.2740   -9.3890   12.2700 C   0  0  0  0  0  2  0  0  0  0  0  0
  -13.1310  -10.1800   11.7000 C   0  0  0  0  0  2  0  0  0  0  0  0
  -16.7870   -9.2000    9.1500 N   0  0  0  0  0  0  0  0  0  0  0  0
  -16.1300   -8.6240    7.6930 S   0  0  0  0  0  0  0  0  0  0  0  0
  -17.5150   -7.7870    6.9490 C   0  0  0  0  0  1  0  0  0  0  0  0
  -15.0970   -7.6480    7.9640 O   0  0  0  0  0  0  0  0  0  0  0  0
  -15.8490   -9.7860    6.8700 O   0  0  0  0  0  0  0  0  0  0  0  0
  -18.1520   -8.7160    9.5220 C   0  0  0  0  0  2  0  0  0  0  0  0
  -18.0630   -7.6930   10.6610 C   0  0  0  0  0  2  0  0  0  0  0  0
  -16.7640   -7.1210   10.7810 O   0  0  0  0  0  0  0  0  0  0  0  0
  -16.0990   -7.8380   10.6830 H   0  0  0  0  0  0  0  0  0  0  0  0
  1 19  1  0  0  0  0
  2  1  2  0  0  0  0
  3  4  1  0  0  0  0
  3  2  1  0  0  0  0
  4  9  1  0  0  0  0
  5  4  2  0  0  0  0
  5  6  1  0  0  0  0
  6  7  2  0  0  0  0
  7  8  1  0  0  0  0
  7 22  1  0  0  0  0
  9  1  1  0  0  0  0
  9  8  2  0  0  0  0
 10 16  1  0  0  0  0
 10  2  1  0  0  0  0
 11 10  2  0  0  0  0
 12 13  2  0  0  0  0
 12 11  1  0  0  0  0
 13 15  1  0  0  0  0
 14 13  1  0  0  0  0
 15 16  2  0  0  0  0
 18 21  1  0  0  0  0
 18 17  1  0  0  0  0
 19 18  1  0  0  0  0
 20 19  2  0  0  0  0
 22 24  1  0  0  0  0
 22 23  1  0  0  0  0
 24 23  1  0  0  0  0
 25 30  1  0  0  0  0
 25  6  1  0  0  0  0
 26 28  2  0  0  0  0
 26 25  1  0  0  0  0
 27 26  1  0  0  0  0
 29 26  2  0  0  0  0
 30 31  1  0  0  0  0
 31 32  1  0  0  0  0
 33 32  1  0  0  0  0
M  END
>  <minimizedAffinity>
-7.9587698

$$$$
