
 OpenBabel09132204463D

 21 22  0  0  1  0  0  0  0  0999 V2000
    4.9130   -9.7370    3.5070 S   0  0  0  0  0  0  0  0  0  0  0  0
    5.6880   -9.6500    4.7360 O   0  0  0  0  0  0  0  0  0  0  0  0
    5.2670  -10.7470    2.5380 O   0  0  0  0  0  0  0  0  0  0  0  0
    4.9460   -8.0900    2.8470 C   0  0  0  0  0  0  0  0  0  0  0  0
    5.4210   -7.9590    1.5300 C   0  0  0  0  0  3  0  0  0  0  0  0
    5.3600   -6.7260    0.8900 C   0  0  0  0  0  0  0  0  0  0  0  0
    5.9390   -6.5720   -0.7240 Cl  0  0  0  0  0  0  0  0  0  0  0  0
    4.8190   -5.6200    1.5360 C   0  0  0  0  0  3  0  0  0  0  0  0
    4.3470   -5.7500    2.8430 C   0  0  0  0  0  0  0  0  0  0  0  0
    3.6900   -4.3430    3.6070 Cl  0  0  0  0  0  0  0  0  0  0  0  0
    4.4170   -6.9810    3.5090 C   0  0  0  0  0  0  0  0  0  0  0  0
    4.0200   -7.0380    4.8140 O   0  0  0  0  0  0  0  0  0  0  0  0
    4.8200   -7.3980    5.3030 H   0  0  0  0  0  0  0  0  0  0  0  0
    2.1720  -10.0120    2.9760 C   0  0  1  0  0  3  0  0  0  0  0  0
    1.1820  -11.1030    3.4030 C   0  0  0  0  0  2  0  0  0  0  0  0
    1.3780  -11.2490    5.1890 S   0  0  0  0  0  0  0  0  0  0  0  0
    3.1470  -10.9730    5.0340 C   0  0  0  0  0  2  0  0  0  0  0  0
    3.3080   -9.9640    3.9850 N   0  0  0  0  0  0  0  0  0  0  0  0
    2.6360  -11.3410    1.0270 O   0  0  0  0  0  1  0  0  0  0  0  0
    2.4430  -10.1730    1.4620 C   0  0  0  0  0  0  0  0  0  0  0  0
    2.3640   -9.1010    0.7890 O   0  0  0  0  0  0  0  0  0  0  0  0
  1 18  1  0  0  0  0
  1  2  2  0  0  0  0
  3  1  2  0  0  0  0
  4  1  1  0  0  0  0
  4 11  1  0  0  0  0
  5  4  2  0  0  0  0
  6  5  1  0  0  0  0
  6  8  2  0  0  0  0
  7  6  1  0  0  0  0
  8  9  1  0  0  0  0
  9 11  2  0  0  0  0
  9 10  1  0  0  0  0
 11 12  1  0  0  0  0
 12 13  1  0  0  0  0
 14 20  1  6  0  0  0
 14 15  1  0  0  0  0
 14 18  1  0  0  0  0
 15 16  1  0  0  0  0
 17 16  1  0  0  0  0
 18 17  1  0  0  0  0
 19 20  1  0  0  0  0
 21 20  2  0  0  0  0
M  END
>  <minimizedAffinity>
-5.56702137

$$$$
