
 OpenBabel09132204463D

 21 22  0  0  1  0  0  0  0  0999 V2000
    4.8510   -9.6980    3.7860 S   0  0  0  0  0  0  0  0  0  0  0  0
    5.2410   -9.5550    5.1810 O   0  0  0  0  0  0  0  0  0  0  0  0
    5.5670  -10.6450    2.9630 O   0  0  0  0  0  0  0  0  0  0  0  0
    4.8880   -8.0440    3.1450 C   0  0  0  0  0  0  0  0  0  0  0  0
    4.0200   -7.1230    3.7560 C   0  0  0  0  0  3  0  0  0  0  0  0
    4.0760   -5.7780    3.4040 C   0  0  0  0  0  0  0  0  0  0  0  0
    3.0140   -4.6530    4.1590 Cl  0  0  0  0  0  0  0  0  0  0  0  0
    4.9960   -5.3320    2.4620 C   0  0  0  0  0  3  0  0  0  0  0  0
    5.8590   -6.2460    1.8560 C   0  0  0  0  0  0  0  0  0  0  0  0
    6.9800   -5.6430    0.6840 Cl  0  0  0  0  0  0  0  0  0  0  0  0
    5.8030   -7.6070    2.1850 C   0  0  0  0  0  0  0  0  0  0  0  0
    6.6080   -8.4750    1.5050 O   0  0  0  0  0  0  0  0  0  0  0  0
    5.9760   -9.1490    1.1140 H   0  0  0  0  0  0  0  0  0  0  0  0
    2.3570  -10.0330    2.5450 C   0  0  1  0  0  3  0  0  0  0  0  0
    1.4120  -11.2410    2.5230 C   0  0  0  0  0  2  0  0  0  0  0  0
    1.1930  -11.7020    4.2530 S   0  0  0  0  0  0  0  0  0  0  0  0
    2.9110  -11.2990    4.5940 C   0  0  0  0  0  2  0  0  0  0  0  0
    3.2110  -10.1050    3.8010 N   0  0  0  0  0  0  0  0  0  0  0  0
    3.4700  -10.9360    0.6160 O   0  0  0  0  0  0  0  0  0  0  0  0
    2.9940   -9.8940    1.1430 C   0  0  0  0  0  0  0  0  0  0  0  0
    2.8990   -8.7400    0.6250 O   0  0  0  0  0  1  0  0  0  0  0  0
  1 18  1  0  0  0  0
  1  2  2  0  0  0  0
  3  1  2  0  0  0  0
  4  5  1  0  0  0  0
  4  1  1  0  0  0  0
  6  5  2  0  0  0  0
  6  7  1  0  0  0  0
  8  6  1  0  0  0  0
  9 11  1  0  0  0  0
  9  8  2  0  0  0  0
 10  9  1  0  0  0  0
 11  4  2  0  0  0  0
 12 11  1  0  0  0  0
 13 12  1  0  0  0  0
 14 20  1  6  0  0  0
 14 18  1  0  0  0  0
 15 14  1  0  0  0  0
 15 16  1  0  0  0  0
 16 17  1  0  0  0  0
 18 17  1  0  0  0  0
 19 20  2  0  0  0  0
 21 20  1  0  0  0  0
M  END
>  <minimizedAffinity>
-5.5298357

$$$$
