
 OpenBabel09132204463D

 21 22  0  0  1  0  0  0  0  0999 V2000
    3.4880   -9.4100    1.4560 S   0  0  0  0  0  0  0  0  0  0  0  0
    4.2310  -10.2780    0.5530 O   0  0  0  0  0  0  0  0  0  0  0  0
    2.0590   -9.2960    1.2830 O   0  0  0  0  0  0  0  0  0  0  0  0
    4.3320   -7.8520    1.3640 C   0  0  0  0  0  0  0  0  0  0  0  0
    4.2800   -7.0500    2.5180 C   0  0  0  0  0  3  0  0  0  0  0  0
    5.0190   -5.8730    2.5790 C   0  0  0  0  0  0  0  0  0  0  0  0
    4.9560   -4.8980    3.9950 Cl  0  0  0  0  0  0  0  0  0  0  0  0
    5.8240   -5.4890    1.5120 C   0  0  0  0  0  3  0  0  0  0  0  0
    5.8770   -6.2850    0.3670 C   0  0  0  0  0  0  0  0  0  0  0  0
    6.8870   -5.7600   -0.9360 Cl  0  0  0  0  0  0  0  0  0  0  0  0
    5.1240   -7.4640    0.2820 C   0  0  0  0  0  0  0  0  0  0  0  0
    5.1420   -8.1650   -0.8890 O   0  0  0  0  0  0  0  0  0  0  0  0
    4.1780   -8.2290   -1.1580 H   0  0  0  0  0  0  0  0  0  0  0  0
    2.7040  -10.3950    3.9630 C   0  0  1  0  0  3  0  0  0  0  0  0
    3.1580  -11.6470    4.7250 C   0  0  0  0  0  2  0  0  0  0  0  0
    4.9590  -11.5630    4.7440 S   0  0  0  0  0  0  0  0  0  0  0  0
    4.9610  -10.8820    3.0810 C   0  0  0  0  0  2  0  0  0  0  0  0
    3.8160   -9.9730    3.0150 N   0  0  0  0  0  0  0  0  0  0  0  0
    1.0380  -11.6980    2.8220 O   0  0  0  0  0  0  0  0  0  0  0  0
    1.2620  -10.6340    3.4600 C   0  0  0  0  0  0  0  0  0  0  0  0
    0.4190   -9.7550    3.8170 O   0  0  0  0  0  1  0  0  0  0  0  0
  1 18  1  0  0  0  0
  2  1  2  0  0  0  0
  3  1  2  0  0  0  0
  4  1  1  0  0  0  0
  4  5  1  0  0  0  0
  5  6  2  0  0  0  0
  6  7  1  0  0  0  0
  8  6  1  0  0  0  0
  9  8  2  0  0  0  0
 10  9  1  0  0  0  0
 11  9  1  0  0  0  0
 11  4  2  0  0  0  0
 12 11  1  0  0  0  0
 13 12  1  0  0  0  0
 14 20  1  6  0  0  0
 14 15  1  0  0  0  0
 15 16  1  0  0  0  0
 17 16  1  0  0  0  0
 18 17  1  0  0  0  0
 18 14  1  0  0  0  0
 19 20  2  0  0  0  0
 20 21  1  0  0  0  0
M  END
>  <minimizedAffinity>
-4.84643936

$$$$
