
 OpenBabel09132204463D

 21 22  0  0  1  0  0  0  0  0999 V2000
    5.2130   -8.4560    3.1960 S   0  0  0  0  0  0  0  0  0  0  0  0
    5.6950   -9.2580    4.3110 O   0  0  0  0  0  0  0  0  0  0  0  0
    6.1780   -7.8910    2.2830 O   0  0  0  0  0  0  0  0  0  0  0  0
    4.1660   -7.2370    3.9510 C   0  0  0  0  0  0  0  0  0  0  0  0
    4.4220   -5.8990    3.6040 C   0  0  0  0  0  3  0  0  0  0  0  0
    3.5700   -4.8920    4.0460 C   0  0  0  0  0  0  0  0  0  0  0  0
    3.8860   -3.2560    3.6140 Cl  0  0  0  0  0  0  0  0  0  0  0  0
    2.4550   -5.1990    4.8180 C   0  0  0  0  0  3  0  0  0  0  0  0
    2.2000   -6.5270    5.1620 C   0  0  0  0  0  0  0  0  0  0  0  0
    0.8050   -6.8560    6.1310 Cl  0  0  0  0  0  0  0  0  0  0  0  0
    3.0580   -7.5520    4.7400 C   0  0  0  0  0  0  0  0  0  0  0  0
    2.8150   -8.8240    5.1710 O   0  0  0  0  0  0  0  0  0  0  0  0
    3.6660   -9.1020    5.6240 H   0  0  0  0  0  0  0  0  0  0  0  0
    3.6510   -9.0740    0.9490 C   0  0  1  0  0  3  0  0  0  0  0  0
    3.6120  -10.3400    0.0830 C   0  0  0  0  0  2  0  0  0  0  0  0
    3.4050  -11.7020    1.2460 S   0  0  0  0  0  0  0  0  0  0  0  0
    4.4690  -10.8730    2.4340 C   0  0  0  0  0  2  0  0  0  0  0  0
    4.1480   -9.4480    2.3360 N   0  0  0  0  0  0  0  0  0  0  0  0
    5.2310   -8.2820   -0.6800 O   0  0  0  0  0  0  0  0  0  0  0  0
    4.3220   -7.9490    0.1270 C   0  0  0  0  0  0  0  0  0  0  0  0
    3.8230   -6.7950    0.2960 O   0  0  0  0  0  1  0  0  0  0  0  0
  1  4  1  0  0  0  0
  1  2  2  0  0  0  0
  3  1  2  0  0  0  0
  4 11  1  0  0  0  0
  5  4  2  0  0  0  0
  5  6  1  0  0  0  0
  6  8  2  0  0  0  0
  7  6  1  0  0  0  0
  8  9  1  0  0  0  0
  9 10  1  0  0  0  0
 11  9  2  0  0  0  0
 11 12  1  0  0  0  0
 12 13  1  0  0  0  0
 14 20  1  6  0  0  0
 14 18  1  0  0  0  0
 15 14  1  0  0  0  0
 15 16  1  0  0  0  0
 16 17  1  0  0  0  0
 18 17  1  0  0  0  0
 18  1  1  0  0  0  0
 19 20  2  0  0  0  0
 20 21  1  0  0  0  0
M  END
>  <minimizedAffinity>
-4.71364594

$$$$
