
 OpenBabel09132204463D

 21 22  0  0  1  0  0  0  0  0999 V2000
    5.8780   -8.3910    2.2670 S   0  0  0  0  0  0  0  0  0  0  0  0
    5.2920   -8.3330    0.9360 O   0  0  0  0  0  0  0  0  0  0  0  0
    7.3110   -8.5200    2.3860 O   0  0  0  0  0  0  0  0  0  0  0  0
    4.9870   -9.6890    3.0860 C   0  0  0  0  0  0  0  0  0  0  0  0
    5.5580  -10.1810    4.2720 C   0  0  0  0  0  3  0  0  0  0  0  0
    4.8640  -11.1070    5.0450 C   0  0  0  0  0  0  0  0  0  0  0  0
    5.5670  -11.7020    6.4990 Cl  0  0  0  0  0  0  0  0  0  0  0  0
    3.6000  -11.5400    4.6620 C   0  0  0  0  0  3  0  0  0  0  0  0
    3.0310  -11.0510    3.4850 C   0  0  0  0  0  0  0  0  0  0  0  0
    1.4590  -11.6260    3.0480 Cl  0  0  0  0  0  0  0  0  0  0  0  0
    3.7250  -10.1320    2.6860 C   0  0  0  0  0  0  0  0  0  0  0  0
    3.1650   -9.7470    1.5020 O   0  0  0  0  0  0  0  0  0  0  0  0
    3.8570   -9.9730    0.8110 H   0  0  0  0  0  0  0  0  0  0  0  0
    5.7960   -5.6020    2.5650 C   0  0  1  0  0  3  0  0  0  0  0  0
    4.5990   -4.6520    2.7010 C   0  0  0  0  0  2  0  0  0  0  0  0
    3.5940   -5.3430    4.0300 S   0  0  0  0  0  0  0  0  0  0  0  0
    3.9790   -7.0090    3.4770 C   0  0  0  0  0  2  0  0  0  0  0  0
    5.3810   -6.9810    3.0550 N   0  0  0  0  0  0  0  0  0  0  0  0
    7.6660   -5.2340    1.1010 O   0  0  0  0  0  1  0  0  0  0  0  0
    6.4170   -5.3970    1.1640 C   0  0  0  0  0  0  0  0  0  0  0  0
    5.6000   -5.4940    0.1990 O   0  0  0  0  0  0  0  0  0  0  0  0
  1  3  2  0  0  0  0
  1 18  1  0  0  0  0
  1  4  1  0  0  0  0
  2  1  2  0  0  0  0
  4  5  1  0  0  0  0
  5  6  2  0  0  0  0
  6  7  1  0  0  0  0
  8  6  1  0  0  0  0
  9  8  2  0  0  0  0
 10  9  1  0  0  0  0
 11  4  2  0  0  0  0
 11  9  1  0  0  0  0
 12 11  1  0  0  0  0
 13 12  1  0  0  0  0
 14 20  1  6  0  0  0
 14 15  1  0  0  0  0
 14 18  1  0  0  0  0
 15 16  1  0  0  0  0
 17 16  1  0  0  0  0
 18 17  1  0  0  0  0
 19 20  1  0  0  0  0
 21 20  2  0  0  0  0
M  END
>  <minimizedAffinity>
-4.62769604

$$$$
