
 OpenBabel09132204463D

 21 22  0  0  1  0  0  0  0  0999 V2000
    5.2080   -6.9940    2.3600 S   0  0  0  0  0  0  0  0  0  0  0  0
    4.2520   -6.4320    1.4170 O   0  0  0  0  0  0  0  0  0  0  0  0
    6.6100   -6.6930    2.1830 O   0  0  0  0  0  0  0  0  0  0  0  0
    4.8600   -8.7340    2.3580 C   0  0  0  0  0  0  0  0  0  0  0  0
    5.3570   -9.4670    3.4500 C   0  0  0  0  0  3  0  0  0  0  0  0
    5.0210  -10.8090    3.5950 C   0  0  0  0  0  0  0  0  0  0  0  0
    5.6280  -11.7010    4.9360 Cl  0  0  0  0  0  0  0  0  0  0  0  0
    4.1840  -11.4310    2.6750 C   0  0  0  0  0  3  0  0  0  0  0  0
    3.6900  -10.7040    1.5910 C   0  0  0  0  0  0  0  0  0  0  0  0
    2.6590  -11.5250    0.4710 Cl  0  0  0  0  0  0  0  0  0  0  0  0
    4.0330   -9.3560    1.4210 C   0  0  0  0  0  0  0  0  0  0  0  0
    3.5940   -8.7090    0.3010 O   0  0  0  0  0  0  0  0  0  0  0  0
    4.4310   -8.3660   -0.1340 H   0  0  0  0  0  0  0  0  0  0  0  0
    4.9820   -5.0530    4.3730 C   0  0  1  0  0  3  0  0  0  0  0  0
    3.7500   -4.5570    5.1410 C   0  0  0  0  0  2  0  0  0  0  0  0
    2.9520   -6.0470    5.7690 S   0  0  0  0  0  0  0  0  0  0  0  0
    3.3770   -6.9290    4.2620 C   0  0  0  0  0  2  0  0  0  0  0  0
    4.7160   -6.4700    3.8890 N   0  0  0  0  0  0  0  0  0  0  0  0
    6.6620   -3.7450    3.2570 O   0  0  0  0  0  1  0  0  0  0  0  0
    5.4240   -3.9370    3.3980 C   0  0  0  0  0  0  0  0  0  0  0  0
    4.4780   -3.3720    2.7690 O   0  0  0  0  0  0  0  0  0  0  0  0
  1 18  1  0  0  0  0
  2  1  2  0  0  0  0
  3  1  2  0  0  0  0
  4  1  1  0  0  0  0
  4  5  1  0  0  0  0
  5  6  2  0  0  0  0
  6  7  1  0  0  0  0
  8  6  1  0  0  0  0
  9  8  2  0  0  0  0
 10  9  1  0  0  0  0
 11  9  1  0  0  0  0
 11  4  2  0  0  0  0
 12 11  1  0  0  0  0
 13 12  1  0  0  0  0
 14 20  1  6  0  0  0
 14 15  1  0  0  0  0
 15 16  1  0  0  0  0
 17 16  1  0  0  0  0
 18 17  1  0  0  0  0
 18 14  1  0  0  0  0
 19 20  1  0  0  0  0
 21 20  2  0  0  0  0
M  END
>  <minimizedAffinity>
-5.08225155

$$$$
