
 OpenBabel09122222393D

 33 37  0  0  0  0  0  0  0  0999 V2000
   14.8700    8.9640   -2.9230 C   0  0  0  0  0  0  0  0  0  0  0  0
   14.1670    9.9090   -2.1590 C   0  0  0  0  0  3  0  0  0  0  0  0
   13.2760    9.5370   -1.1450 C   0  0  0  0  0  3  0  0  0  0  0  0
   13.1020    8.1670   -0.9100 C   0  0  0  0  0  0  0  0  0  0  0  0
   13.7730    7.2010   -1.6540 C   0  0  0  0  0  0  0  0  0  0  0  0
   14.6640    7.5940   -2.6620 C   0  0  0  0  0  3  0  0  0  0  0  0
   13.4200    5.9390   -1.2430 N   0  0  0  0  0  0  0  0  0  0  0  0
   12.5170    6.0970   -0.2950 C   0  0  0  0  0  0  0  0  0  0  0  0
   12.3480    7.4430   -0.0070 N   0  0  0  0  0  0  0  0  0  0  0  0
   11.8350    4.9840    0.3670 C   0  0  0  0  0  0  0  0  0  0  0  0
   12.4230    4.3000    1.4350 C   0  0  0  0  0  3  0  0  0  0  0  0
   11.7460    3.2450    2.0550 C   0  0  0  0  0  3  0  0  0  0  0  0
   10.4720    2.8660    1.6240 C   0  0  0  0  0  0  0  0  0  0  0  0
    9.8640    3.5710    0.5870 C   0  0  0  0  0  3  0  0  0  0  0  0
   10.5420    4.6260   -0.0350 C   0  0  0  0  0  3  0  0  0  0  0  0
    9.9230    1.8260    2.3230 O   0  0  0  0  0  0  0  0  0  0  0  0
    8.9800    0.9860    1.6550 C   0  0  0  0  0  2  0  0  0  0  0  0
    9.6190   -0.1400    0.8700 C   0  0  0  0  0  0  0  0  0  0  0  0
    9.6570   -1.4290    1.4210 C   0  0  0  0  0  3  0  0  0  0  0  0
   10.2050   -2.4950    0.7020 C   0  0  0  0  0  3  0  0  0  0  0  0
   10.7130   -2.2910   -0.5820 C   0  0  0  0  0  0  0  0  0  0  0  0
   11.3620   -3.6580   -1.4150 Cl  0  0  0  0  0  0  0  0  0  0  0  0
   10.6710   -1.0140   -1.1500 C   0  0  0  0  0  0  0  0  0  0  0  0
   11.2650   -0.6880   -2.7400 Cl  0  0  0  0  0  0  0  0  0  0  0  0
   10.1210    0.0520   -0.4280 C   0  0  0  0  0  3  0  0  0  0  0  0
   11.5610    7.9880    1.0830 C   0  0  0  0  0  3  0  0  0  0  0  0
   10.0480    7.7520    0.9740 C   0  0  0  0  0  2  0  0  0  0  0  0
    9.5750    7.8300    2.4170 C   0  0  0  0  0  2  0  0  0  0  0  0
   10.6690    7.1040    3.1840 C   0  0  0  0  0  2  0  0  0  0  0  0
   11.9690    7.4960    2.4840 C   0  0  0  0  0  2  0  0  0  0  0  0
   16.2970   10.5900   -3.9140 O   0  0  0  0  0  1  0  0  0  0  0  0
   15.8290    9.4110   -4.0080 C   0  0  0  0  0  0  0  0  0  0  0  0
   16.0980    8.5780   -4.9290 O   0  0  0  0  0  0  0  0  0  0  0  0
  1  6  2  0  0  0  0
  1  2  1  0  0  0  0
  2  3  2  0  0  0  0
  3  4  1  0  0  0  0
  4  9  1  0  0  0  0
  5  7  1  0  0  0  0
  5  4  2  0  0  0  0
  6  5  1  0  0  0  0
  7  8  2  0  0  0  0
  8  9  1  0  0  0  0
  8 10  1  0  0  0  0
  9 26  1  0  0  0  0
 10 11  1  0  0  0  0
 11 12  2  0  0  0  0
 13 12  1  0  0  0  0
 13 16  1  0  0  0  0
 14 13  2  0  0  0  0
 15 10  2  0  0  0  0
 15 14  1  0  0  0  0
 17 16  1  0  0  0  0
 18 19  1  0  0  0  0
 18 17  1  0  0  0  0
 20 19  2  0  0  0  0
 21 20  1  0  0  0  0
 22 21  1  0  0  0  0
 23 21  2  0  0  0  0
 23 25  1  0  0  0  0
 24 23  1  0  0  0  0
 25 18  2  0  0  0  0
 26 30  1  0  0  0  0
 27 26  1  0  0  0  0
 27 28  1  0  0  0  0
 28 29  1  0  0  0  0
 30 29  1  0  0  0  0
 32 31  1  0  0  0  0
 32  1  1  0  0  0  0
 33 32  2  0  0  0  0
M  END
>  <minimizedAffinity>
-7.10407162

$$$$
