
 OpenBabel09122222393D

 33 37  0  0  0  0  0  0  0  0999 V2000
    8.9270   -2.1370    2.2530 C   0  0  0  0  0  0  0  0  0  0  0  0
    9.2920   -2.4090    0.9250 C   0  0  0  0  0  3  0  0  0  0  0  0
    9.7410   -1.4090    0.0540 C   0  0  0  0  0  3  0  0  0  0  0  0
    9.8160   -0.1030    0.5550 C   0  0  0  0  0  0  0  0  0  0  0  0
    9.4530    0.2070    1.8620 C   0  0  0  0  0  0  0  0  0  0  0  0
    9.0100   -0.8090    2.7210 C   0  0  0  0  0  3  0  0  0  0  0  0
    9.6000    1.5510    2.1020 N   0  0  0  0  0  0  0  0  0  0  0  0
   10.0040    2.0880    0.9670 C   0  0  0  0  0  0  0  0  0  0  0  0
   10.2210    1.1030    0.0160 N   0  0  0  0  0  0  0  0  0  0  0  0
   10.2180    3.5230    0.7820 C   0  0  0  0  0  0  0  0  0  0  0  0
    9.3630    4.2910   -0.0150 C   0  0  0  0  0  3  0  0  0  0  0  0
    9.5860    5.6630   -0.1680 C   0  0  0  0  0  3  0  0  0  0  0  0
   10.6570    6.2880    0.4760 C   0  0  0  0  0  0  0  0  0  0  0  0
   11.4880    5.5350    1.3040 C   0  0  0  0  0  3  0  0  0  0  0  0
   11.2660    4.1610    1.4570 C   0  0  0  0  0  3  0  0  0  0  0  0
   10.7520    7.6320    0.2450 O   0  0  0  0  0  0  0  0  0  0  0  0
   12.0460    8.2350    0.2910 C   0  0  0  0  0  2  0  0  0  0  0  0
   12.8660    8.0120   -0.9630 C   0  0  0  0  0  0  0  0  0  0  0  0
   14.1000    7.3520   -0.8710 C   0  0  0  0  0  3  0  0  0  0  0  0
   14.8580    7.0980   -2.0160 C   0  0  0  0  0  3  0  0  0  0  0  0
   14.3910    7.4920   -3.2720 C   0  0  0  0  0  0  0  0  0  0  0  0
   15.3770    7.1320   -4.6440 Cl  0  0  0  0  0  0  0  0  0  0  0  0
   13.1580    8.1410   -3.3810 C   0  0  0  0  0  0  0  0  0  0  0  0
   12.5070    8.6420   -4.9010 Cl  0  0  0  0  0  0  0  0  0  0  0  0
   12.3990    8.3940   -2.2310 C   0  0  0  0  0  3  0  0  0  0  0  0
   10.8180    1.2990   -1.2920 C   0  0  0  0  0  3  0  0  0  0  0  0
   12.3490    1.4150   -1.2960 C   0  0  0  0  0  2  0  0  0  0  0  0
   12.7310    0.9910   -2.7060 C   0  0  0  0  0  2  0  0  0  0  0  0
   11.7940   -0.1730   -2.9870 C   0  0  0  0  0  2  0  0  0  0  0  0
   10.4710    0.2170   -2.3310 C   0  0  0  0  0  2  0  0  0  0  0  0
    7.5720   -4.0430    2.6970 O   0  0  0  0  0  0  0  0  0  0  0  0
    8.4510   -3.2500    3.1650 C   0  0  0  0  0  0  0  0  0  0  0  0
    8.9630   -3.3150    4.3260 O   0  0  0  0  0  1  0  0  0  0  0  0
  1  6  1  0  0  0  0
  1 32  1  0  0  0  0
  2  1  2  0  0  0  0
  3  4  2  0  0  0  0
  3  2  1  0  0  0  0
  4  5  1  0  0  0  0
  5  7  1  0  0  0  0
  5  6  2  0  0  0  0
  8  7  2  0  0  0  0
  9  4  1  0  0  0  0
  9  8  1  0  0  0  0
 10  8  1  0  0  0  0
 10 15  1  0  0  0  0
 11 10  2  0  0  0  0
 12 11  1  0  0  0  0
 12 13  2  0  0  0  0
 13 14  1  0  0  0  0
 14 15  2  0  0  0  0
 16 17  1  0  0  0  0
 16 13  1  0  0  0  0
 18 19  1  0  0  0  0
 18 17  1  0  0  0  0
 20 19  2  0  0  0  0
 21 20  1  0  0  0  0
 22 21  1  0  0  0  0
 23 21  2  0  0  0  0
 23 25  1  0  0  0  0
 24 23  1  0  0  0  0
 25 18  2  0  0  0  0
 26  9  1  0  0  0  0
 27 26  1  0  0  0  0
 28 27  1  0  0  0  0
 29 28  1  0  0  0  0
 29 30  1  0  0  0  0
 30 26  1  0  0  0  0
 31 32  2  0  0  0  0
 32 33  1  0  0  0  0
M  END
>  <minimizedAffinity>
-8.19351768

$$$$
