
 OpenBabel09122222393D

 33 37  0  0  0  0  0  0  0  0999 V2000
    9.7960    7.6500    0.5350 C   0  0  0  0  0  0  0  0  0  0  0  0
   10.6160    7.5740    1.6720 C   0  0  0  0  0  3  0  0  0  0  0  0
   11.0070    6.3500    2.2310 C   0  0  0  0  0  3  0  0  0  0  0  0
   10.5460    5.1820    1.6110 C   0  0  0  0  0  0  0  0  0  0  0  0
    9.7230    5.2170    0.4890 C   0  0  0  0  0  0  0  0  0  0  0  0
    9.3470    6.4530   -0.0590 C   0  0  0  0  0  3  0  0  0  0  0  0
    9.3980    3.9460    0.0840 N   0  0  0  0  0  0  0  0  0  0  0  0
    9.9610    3.1260    0.9490 C   0  0  0  0  0  0  0  0  0  0  0  0
   10.7350    3.8350    1.8560 N   0  0  0  0  0  0  0  0  0  0  0  0
    9.8020    1.6720    0.9080 C   0  0  0  0  0  0  0  0  0  0  0  0
    9.2160    0.9730    1.9680 C   0  0  0  0  0  3  0  0  0  0  0  0
    9.0670   -0.4150    1.9000 C   0  0  0  0  0  3  0  0  0  0  0  0
    9.4930   -1.1230    0.7720 C   0  0  0  0  0  0  0  0  0  0  0  0
   10.0400   -0.4260   -0.3040 C   0  0  0  0  0  3  0  0  0  0  0  0
   10.1900    0.9640   -0.2350 C   0  0  0  0  0  3  0  0  0  0  0  0
    9.2810   -2.4720    0.8350 O   0  0  0  0  0  0  0  0  0  0  0  0
    9.7660   -3.2840   -0.2360 C   0  0  0  0  0  2  0  0  0  0  0  0
   11.2700   -3.2440   -0.3970 C   0  0  0  0  0  0  0  0  0  0  0  0
   12.0890   -3.5280    0.7060 C   0  0  0  0  0  3  0  0  0  0  0  0
   13.4800   -3.5380    0.5760 C   0  0  0  0  0  3  0  0  0  0  0  0
   14.0740   -3.2730   -0.6590 C   0  0  0  0  0  0  0  0  0  0  0  0
   15.7990   -3.3160   -0.7470 Cl  0  0  0  0  0  0  0  0  0  0  0  0
   13.2710   -3.0000   -1.7700 C   0  0  0  0  0  0  0  0  0  0  0  0
   13.9330   -2.6810   -3.3350 Cl  0  0  0  0  0  0  0  0  0  0  0  0
   11.8770   -2.9920   -1.6380 C   0  0  0  0  0  3  0  0  0  0  0  0
   11.6250    3.2620    2.8470 C   0  0  0  0  0  3  0  0  0  0  0  0
   13.1220    3.4260    2.5500 C   0  0  0  0  0  2  0  0  0  0  0  0
   13.7660    3.3360    3.9240 C   0  0  0  0  0  2  0  0  0  0  0  0
   12.8100    4.1170    4.8110 C   0  0  0  0  0  2  0  0  0  0  0  0
   11.4160    3.7820    4.2820 C   0  0  0  0  0  2  0  0  0  0  0  0
    8.2250    9.4080    0.2110 O   0  0  0  0  0  1  0  0  0  0  0  0
    9.4020    8.9950   -0.0410 C   0  0  0  0  0  0  0  0  0  0  0  0
   10.2720    9.6140   -0.7300 O   0  0  0  0  0  0  0  0  0  0  0  0
  1  2  1  0  0  0  0
  2  3  2  0  0  0  0
  4  9  1  0  0  0  0
  4  3  1  0  0  0  0
  5  4  2  0  0  0  0
  6  5  1  0  0  0  0
  6  1  2  0  0  0  0
  7  5  1  0  0  0  0
  7  8  2  0  0  0  0
  8  9  1  0  0  0  0
  9 26  1  0  0  0  0
 10  8  1  0  0  0  0
 10 11  1  0  0  0  0
 12 11  2  0  0  0  0
 13 16  1  0  0  0  0
 13 12  1  0  0  0  0
 14 15  1  0  0  0  0
 14 13  2  0  0  0  0
 15 10  2  0  0  0  0
 17 16  1  0  0  0  0
 18 17  1  0  0  0  0
 18 19  1  0  0  0  0
 20 19  2  0  0  0  0
 21 20  1  0  0  0  0
 22 21  1  0  0  0  0
 23 25  1  0  0  0  0
 23 21  2  0  0  0  0
 24 23  1  0  0  0  0
 25 18  2  0  0  0  0
 26 30  1  0  0  0  0
 27 26  1  0  0  0  0
 27 28  1  0  0  0  0
 28 29  1  0  0  0  0
 30 29  1  0  0  0  0
 32 31  1  0  0  0  0
 32  1  1  0  0  0  0
 33 32  2  0  0  0  0
M  END
>  <minimizedAffinity>
-8.42166042

$$$$
