
 OpenBabel09122222393D

 33 37  0  0  0  0  0  0  0  0999 V2000
   14.5430    8.5260   -2.0850 C   0  0  0  0  0  0  0  0  0  0  0  0
   13.4530    9.3610   -1.7880 C   0  0  0  0  0  3  0  0  0  0  0  0
   12.3530    8.9170   -1.0440 C   0  0  0  0  0  3  0  0  0  0  0  0
   12.3700    7.5890   -0.5970 C   0  0  0  0  0  0  0  0  0  0  0  0
   13.4270    6.7290   -0.8810 C   0  0  0  0  0  0  0  0  0  0  0  0
   14.5230    7.1950   -1.6230 C   0  0  0  0  0  3  0  0  0  0  0  0
   13.1980    5.4850   -0.3480 N   0  0  0  0  0  0  0  0  0  0  0  0
   12.0100    5.5380    0.2210 C   0  0  0  0  0  0  0  0  0  0  0  0
   11.5010    6.8260    0.1580 N   0  0  0  0  0  0  0  0  0  0  0  0
   11.3640    4.3880    0.8540 C   0  0  0  0  0  0  0  0  0  0  0  0
   10.2130    3.8090    0.3100 C   0  0  0  0  0  3  0  0  0  0  0  0
    9.6200    2.7050    0.9310 C   0  0  0  0  0  3  0  0  0  0  0  0
   10.1690    2.1610    2.0940 C   0  0  0  0  0  0  0  0  0  0  0  0
   11.3390    2.7100    2.6170 C   0  0  0  0  0  3  0  0  0  0  0  0
   11.9320    3.8150    1.9980 C   0  0  0  0  0  3  0  0  0  0  0  0
    9.4930    1.0810    2.5910 O   0  0  0  0  0  0  0  0  0  0  0  0
    8.7320    0.2830    1.6820 C   0  0  0  0  0  2  0  0  0  0  0  0
    9.5760   -0.6340    0.8230 C   0  0  0  0  0  0  0  0  0  0  0  0
    9.8570   -1.9330    1.2710 C   0  0  0  0  0  3  0  0  0  0  0  0
   10.6000   -2.8130    0.4810 C   0  0  0  0  0  3  0  0  0  0  0  0
   11.0670   -2.4120   -0.7730 C   0  0  0  0  0  0  0  0  0  0  0  0
   11.9670   -3.5590   -1.6980 Cl  0  0  0  0  0  0  0  0  0  0  0  0
   10.7860   -1.1250   -1.2380 C   0  0  0  0  0  0  0  0  0  0  0  0
   11.3140   -0.5630   -2.7840 Cl  0  0  0  0  0  0  0  0  0  0  0  0
   10.0400   -0.2440   -0.4440 C   0  0  0  0  0  3  0  0  0  0  0  0
   10.2960    7.2990    0.8140 C   0  0  0  0  0  3  0  0  0  0  0  0
   10.5240    8.3390    1.9210 C   0  0  0  0  0  2  0  0  0  0  0  0
    9.2000    9.0820    1.9840 C   0  0  0  0  0  2  0  0  0  0  0  0
    8.8040    9.2170    0.5220 C   0  0  0  0  0  2  0  0  0  0  0  0
    9.2410    7.9050   -0.1280 C   0  0  0  0  0  2  0  0  0  0  0  0
   16.5320    8.1870   -3.3470 O   0  0  0  0  0  0  0  0  0  0  0  0
   15.7160    9.0500   -2.8880 C   0  0  0  0  0  0  0  0  0  0  0  0
   15.8010   10.3080   -3.0490 O   0  0  0  0  0  1  0  0  0  0  0  0
  1  2  2  0  0  0  0
  1  6  1  0  0  0  0
  2  3  1  0  0  0  0
  3  4  2  0  0  0  0
  4  9  1  0  0  0  0
  5  4  1  0  0  0  0
  5  7  1  0  0  0  0
  6  5  2  0  0  0  0
  7  8  2  0  0  0  0
  8 10  1  0  0  0  0
  9  8  1  0  0  0  0
  9 26  1  0  0  0  0
 10 15  1  0  0  0  0
 11 10  2  0  0  0  0
 11 12  1  0  0  0  0
 12 13  2  0  0  0  0
 13 16  1  0  0  0  0
 13 14  1  0  0  0  0
 15 14  2  0  0  0  0
 17 16  1  0  0  0  0
 18 19  1  0  0  0  0
 18 17  1  0  0  0  0
 20 19  2  0  0  0  0
 21 20  1  0  0  0  0
 22 21  1  0  0  0  0
 23 21  2  0  0  0  0
 23 25  1  0  0  0  0
 24 23  1  0  0  0  0
 25 18  2  0  0  0  0
 26 27  1  0  0  0  0
 27 28  1  0  0  0  0
 29 28  1  0  0  0  0
 30 29  1  0  0  0  0
 30 26  1  0  0  0  0
 31 32  2  0  0  0  0
 32  1  1  0  0  0  0
 33 32  1  0  0  0  0
M  END
>  <minimizedAffinity>
-7.42688131

$$$$
