
 OpenBabel09122221203D

 33 37  0  0  0  0  0  0  0  0999 V2000
    9.7960    7.6500    0.5350 C   0  0  0  0  0  0  0  0  0  0  0  0
   10.6160    7.5740    1.6720 C   0  0  0  0  0  3  0  0  0  0  0  0
   11.0070    6.3500    2.2310 C   0  0  0  0  0  3  0  0  0  0  0  0
   10.5460    5.1820    1.6110 C   0  0  0  0  0  0  0  0  0  0  0  0
    9.7230    5.2170    0.4890 C   0  0  0  0  0  0  0  0  0  0  0  0
    9.3470    6.4530   -0.0590 C   0  0  0  0  0  3  0  0  0  0  0  0
    9.3980    3.9460    0.0840 N   0  0  0  0  0  0  0  0  0  0  0  0
    9.9610    3.1260    0.9490 C   0  0  0  0  0  0  0  0  0  0  0  0
   10.7350    3.8350    1.8560 N   0  0  0  0  0  0  0  0  0  0  0  0
    9.8020    1.6720    0.9080 C   0  0  0  0  0  0  0  0  0  0  0  0
    9.2160    0.9730    1.9680 C   0  0  0  0  0  3  0  0  0  0  0  0
    9.0670   -0.4150    1.9000 C   0  0  0  0  0  3  0  0  0  0  0  0
    9.4930   -1.1230    0.7720 C   0  0  0  0  0  0  0  0  0  0  0  0
   10.0400   -0.4260   -0.3040 C   0  0  0  0  0  3  0  0  0  0  0  0
   10.1900    0.9640   -0.2350 C   0  0  0  0  0  3  0  0  0  0  0  0
    9.2810   -2.4720    0.8350 O   0  0  0  0  0  0  0  0  0  0  0  0
    9.7660   -3.2840   -0.2360 C   0  0  0  0  0  2  0  0  0  0  0  0
   11.2700   -3.2440   -0.3970 C   0  0  0  0  0  0  0  0  0  0  0  0
   12.0890   -3.5280    0.7060 C   0  0  0  0  0  3  0  0  0  0  0  0
   13.4800   -3.5380    0.5760 C   0  0  0  0  0  3  0  0  0  0  0  0
   14.0740   -3.2730   -0.6590 C   0  0  0  0  0  0  0  0  0  0  0  0
   15.7990   -3.3160   -0.7470 Cl  0  0  0  0  0  0  0  0  0  0  0  0
   13.2710   -3.0000   -1.7700 C   0  0  0  0  0  0  0  0  0  0  0  0
   13.9330   -2.6810   -3.3350 Cl  0  0  0  0  0  0  0  0  0  0  0  0
   11.8770   -2.9920   -1.6380 C   0  0  0  0  0  3  0  0  0  0  0  0
   11.6250    3.2620    2.8470 C   0  0  0  0  0  3  0  0  0  0  0  0
   13.1220    3.4260    2.5500 C   0  0  0  0  0  2  0  0  0  0  0  0
   13.7660    3.3360    3.9240 C   0  0  0  0  0  2  0  0  0  0  0  0
   12.8100    4.1170    4.8110 C   0  0  0  0  0  2  0  0  0  0  0  0
   11.4160    3.7820    4.2820 C   0  0  0  0  0  2  0  0  0  0  0  0
    8.2250    9.4080    0.2110 O   0  0  0  0  0  1  0  0  0  0  0  0
    9.4020    8.9950   -0.0410 C   0  0  0  0  0  0  0  0  0  0  0  0
   10.2720    9.6140   -0.7300 O   0  0  0  0  0  0  0  0  0  0  0  0
  1  2  1  0  0  0  0
  2  3  2  0  0  0  0
  4  9  1  0  0  0  0
  4  3  1  0  0  0  0
  5  4  2  0  0  0  0
  6  5  1  0  0  0  0
  6  1  2  0  0  0  0
  7  5  1  0  0  0  0
  7  8  2  0  0  0  0
  8  9  1  0  0  0  0
  9 26  1  0  0  0  0
 10  8  1  0  0  0  0
 10 11  1  0  0  0  0
 12 11  2  0  0  0  0
 13 16  1  0  0  0  0
 13 12  1  0  0  0  0
 14 15  1  0  0  0  0
 14 13  2  0  0  0  0
 15 10  2  0  0  0  0
 17 16  1  0  0  0  0
 18 17  1  0  0  0  0
 18 19  1  0  0  0  0
 20 19  2  0  0  0  0
 21 20  1  0  0  0  0
 22 21  1  0  0  0  0
 23 25  1  0  0  0  0
 23 21  2  0  0  0  0
 24 23  1  0  0  0  0
 25 18  2  0  0  0  0
 26 30  1  0  0  0  0
 27 26  1  0  0  0  0
 27 28  1  0  0  0  0
 28 29  1  0  0  0  0
 30 29  1  0  0  0  0
 32 31  1  0  0  0  0
 32  1  1  0  0  0  0
 33 32  2  0  0  0  0
M  END
>  <minimizedAffinity>
-8.42166042

$$$$

 OpenBabel09122221203D

 33 37  0  0  0  0  0  0  0  0999 V2000
    8.9270   -2.1370    2.2530 C   0  0  0  0  0  0  0  0  0  0  0  0
    9.2920   -2.4090    0.9250 C   0  0  0  0  0  3  0  0  0  0  0  0
    9.7410   -1.4090    0.0540 C   0  0  0  0  0  3  0  0  0  0  0  0
    9.8160   -0.1030    0.5550 C   0  0  0  0  0  0  0  0  0  0  0  0
    9.4530    0.2070    1.8620 C   0  0  0  0  0  0  0  0  0  0  0  0
    9.0100   -0.8090    2.7210 C   0  0  0  0  0  3  0  0  0  0  0  0
    9.6000    1.5510    2.1020 N   0  0  0  0  0  0  0  0  0  0  0  0
   10.0040    2.0880    0.9670 C   0  0  0  0  0  0  0  0  0  0  0  0
   10.2210    1.1030    0.0160 N   0  0  0  0  0  0  0  0  0  0  0  0
   10.2180    3.5230    0.7820 C   0  0  0  0  0  0  0  0  0  0  0  0
    9.3630    4.2910   -0.0150 C   0  0  0  0  0  3  0  0  0  0  0  0
    9.5860    5.6630   -0.1680 C   0  0  0  0  0  3  0  0  0  0  0  0
   10.6570    6.2880    0.4760 C   0  0  0  0  0  0  0  0  0  0  0  0
   11.4880    5.5350    1.3040 C   0  0  0  0  0  3  0  0  0  0  0  0
   11.2660    4.1610    1.4570 C   0  0  0  0  0  3  0  0  0  0  0  0
   10.7520    7.6320    0.2450 O   0  0  0  0  0  0  0  0  0  0  0  0
   12.0460    8.2350    0.2910 C   0  0  0  0  0  2  0  0  0  0  0  0
   12.8660    8.0120   -0.9630 C   0  0  0  0  0  0  0  0  0  0  0  0
   14.1000    7.3520   -0.8710 C   0  0  0  0  0  3  0  0  0  0  0  0
   14.8580    7.0980   -2.0160 C   0  0  0  0  0  3  0  0  0  0  0  0
   14.3910    7.4920   -3.2720 C   0  0  0  0  0  0  0  0  0  0  0  0
   15.3770    7.1320   -4.6440 Cl  0  0  0  0  0  0  0  0  0  0  0  0
   13.1580    8.1410   -3.3810 C   0  0  0  0  0  0  0  0  0  0  0  0
   12.5070    8.6420   -4.9010 Cl  0  0  0  0  0  0  0  0  0  0  0  0
   12.3990    8.3940   -2.2310 C   0  0  0  0  0  3  0  0  0  0  0  0
   10.8180    1.2990   -1.2920 C   0  0  0  0  0  3  0  0  0  0  0  0
   12.3490    1.4150   -1.2960 C   0  0  0  0  0  2  0  0  0  0  0  0
   12.7310    0.9910   -2.7060 C   0  0  0  0  0  2  0  0  0  0  0  0
   11.7940   -0.1730   -2.9870 C   0  0  0  0  0  2  0  0  0  0  0  0
   10.4710    0.2170   -2.3310 C   0  0  0  0  0  2  0  0  0  0  0  0
    7.5720   -4.0430    2.6970 O   0  0  0  0  0  0  0  0  0  0  0  0
    8.4510   -3.2500    3.1650 C   0  0  0  0  0  0  0  0  0  0  0  0
    8.9630   -3.3150    4.3260 O   0  0  0  0  0  1  0  0  0  0  0  0
  1  6  1  0  0  0  0
  1 32  1  0  0  0  0
  2  1  2  0  0  0  0
  3  4  2  0  0  0  0
  3  2  1  0  0  0  0
  4  5  1  0  0  0  0
  5  7  1  0  0  0  0
  5  6  2  0  0  0  0
  8  7  2  0  0  0  0
  9  4  1  0  0  0  0
  9  8  1  0  0  0  0
 10  8  1  0  0  0  0
 10 15  1  0  0  0  0
 11 10  2  0  0  0  0
 12 11  1  0  0  0  0
 12 13  2  0  0  0  0
 13 14  1  0  0  0  0
 14 15  2  0  0  0  0
 16 17  1  0  0  0  0
 16 13  1  0  0  0  0
 18 19  1  0  0  0  0
 18 17  1  0  0  0  0
 20 19  2  0  0  0  0
 21 20  1  0  0  0  0
 22 21  1  0  0  0  0
 23 21  2  0  0  0  0
 23 25  1  0  0  0  0
 24 23  1  0  0  0  0
 25 18  2  0  0  0  0
 26  9  1  0  0  0  0
 27 26  1  0  0  0  0
 28 27  1  0  0  0  0
 29 28  1  0  0  0  0
 29 30  1  0  0  0  0
 30 26  1  0  0  0  0
 31 32  2  0  0  0  0
 32 33  1  0  0  0  0
M  END
>  <minimizedAffinity>
-8.19351768

$$$$

 OpenBabel09122221203D

 33 37  0  0  0  0  0  0  0  0999 V2000
    8.9500   -2.1260    2.2270 C   0  0  0  0  0  0  0  0  0  0  0  0
    9.3410   -2.3970    0.9060 C   0  0  0  0  0  3  0  0  0  0  0  0
    9.7750   -1.3910    0.0340 C   0  0  0  0  0  3  0  0  0  0  0  0
    9.8060   -0.0790    0.5270 C   0  0  0  0  0  0  0  0  0  0  0  0
    9.4160    0.2290    1.8260 C   0  0  0  0  0  0  0  0  0  0  0  0
    8.9890   -0.7940    2.6860 C   0  0  0  0  0  3  0  0  0  0  0  0
    9.5220    1.5780    2.0590 N   0  0  0  0  0  0  0  0  0  0  0  0
    9.9260    2.1180    0.9260 C   0  0  0  0  0  0  0  0  0  0  0  0
   10.1850    1.1330   -0.0150 N   0  0  0  0  0  0  0  0  0  0  0  0
   10.1030    3.5580    0.7340 C   0  0  0  0  0  0  0  0  0  0  0  0
    9.1860    4.3120   -0.0050 C   0  0  0  0  0  3  0  0  0  0  0  0
    9.3740    5.6890   -0.1670 C   0  0  0  0  0  3  0  0  0  0  0  0
   10.4720    6.3310    0.4120 C   0  0  0  0  0  0  0  0  0  0  0  0
   11.3660    5.5910    1.1840 C   0  0  0  0  0  3  0  0  0  0  0  0
   11.1790    4.2130    1.3440 C   0  0  0  0  0  3  0  0  0  0  0  0
   10.5290    7.6770    0.1810 O   0  0  0  0  0  0  0  0  0  0  0  0
   11.2780    8.1390   -0.9440 C   0  0  0  0  0  2  0  0  0  0  0  0
   10.4760    9.0010   -1.8960 C   0  0  0  0  0  0  0  0  0  0  0  0
   10.4920   10.3950   -1.7420 C   0  0  0  0  0  3  0  0  0  0  0  0
    9.7940   11.2170   -2.6310 C   0  0  0  0  0  3  0  0  0  0  0  0
    9.0770   10.6590   -3.6920 C   0  0  0  0  0  0  0  0  0  0  0  0
    8.2490   11.7380   -4.7560 Cl  0  0  0  0  0  0  0  0  0  0  0  0
    9.0610    9.2720   -3.8650 C   0  0  0  0  0  0  0  0  0  0  0  0
    8.2120    8.5110   -5.1630 Cl  0  0  0  0  0  0  0  0  0  0  0  0
    9.7630    8.4510   -2.9730 C   0  0  0  0  0  3  0  0  0  0  0  0
   10.7950    1.3370   -1.3150 C   0  0  0  0  0  3  0  0  0  0  0  0
   12.3180    1.5320   -1.2960 C   0  0  0  0  0  2  0  0  0  0  0  0
   12.7450    1.1040   -2.6910 C   0  0  0  0  0  2  0  0  0  0  0  0
   11.8750   -0.1110   -2.9660 C   0  0  0  0  0  2  0  0  0  0  0  0
   10.5220    0.2210   -2.3400 C   0  0  0  0  0  2  0  0  0  0  0  0
    7.8050   -4.1770    2.6110 O   0  0  0  0  0  0  0  0  0  0  0  0
    8.4930   -3.2460    3.1400 C   0  0  0  0  0  0  0  0  0  0  0  0
    8.8290   -3.1780    4.3640 O   0  0  0  0  0  1  0  0  0  0  0  0
  1  6  1  0  0  0  0
  1 32  1  0  0  0  0
  2  1  2  0  0  0  0
  3  4  2  0  0  0  0
  3  2  1  0  0  0  0
  4  5  1  0  0  0  0
  5  7  1  0  0  0  0
  5  6  2  0  0  0  0
  8  7  2  0  0  0  0
  9  4  1  0  0  0  0
  9  8  1  0  0  0  0
 10  8  1  0  0  0  0
 10 15  1  0  0  0  0
 11 10  2  0  0  0  0
 12 11  1  0  0  0  0
 12 13  2  0  0  0  0
 13 14  1  0  0  0  0
 14 15  2  0  0  0  0
 16 13  1  0  0  0  0
 17 16  1  0  0  0  0
 18 19  1  0  0  0  0
 18 17  1  0  0  0  0
 20 19  2  0  0  0  0
 21 20  1  0  0  0  0
 22 21  1  0  0  0  0
 23 21  2  0  0  0  0
 23 25  1  0  0  0  0
 24 23  1  0  0  0  0
 25 18  2  0  0  0  0
 26 27  1  0  0  0  0
 26  9  1  0  0  0  0
 28 27  1  0  0  0  0
 29 28  1  0  0  0  0
 29 30  1  0  0  0  0
 30 26  1  0  0  0  0
 31 32  2  0  0  0  0
 32 33  1  0  0  0  0
M  END
>  <minimizedAffinity>
-7.95364571

$$$$

 OpenBabel09122221203D

 33 37  0  0  0  0  0  0  0  0999 V2000
    9.5540    7.7410    1.1360 C   0  0  0  0  0  0  0  0  0  0  0  0
   10.2330    7.4210    2.3230 C   0  0  0  0  0  3  0  0  0  0  0  0
   10.7370    6.1390    2.5730 C   0  0  0  0  0  3  0  0  0  0  0  0
   10.5400    5.1640    1.5860 C   0  0  0  0  0  0  0  0  0  0  0  0
    9.8620    5.4400    0.4020 C   0  0  0  0  0  0  0  0  0  0  0  0
    9.3690    6.7320    0.1680 C   0  0  0  0  0  3  0  0  0  0  0  0
    9.7880    4.3200   -0.3880 N   0  0  0  0  0  0  0  0  0  0  0  0
   10.3630    3.3480    0.2920 C   0  0  0  0  0  0  0  0  0  0  0  0
   10.9030    3.8370    1.4720 N   0  0  0  0  0  0  0  0  0  0  0  0
   10.4350    1.9640   -0.1780 C   0  0  0  0  0  0  0  0  0  0  0  0
   11.2680    1.5990   -1.2410 C   0  0  0  0  0  3  0  0  0  0  0  0
   11.3250    0.2680   -1.6650 C   0  0  0  0  0  3  0  0  0  0  0  0
   10.5610   -0.7160   -1.0310 C   0  0  0  0  0  0  0  0  0  0  0  0
    9.7610   -0.3630    0.0550 C   0  0  0  0  0  3  0  0  0  0  0  0
    9.7020    0.9690    0.4790 C   0  0  0  0  0  3  0  0  0  0  0  0
   10.7180   -1.9740   -1.5420 O   0  0  0  0  0  0  0  0  0  0  0  0
   10.9910   -3.0430   -0.6340 C   0  0  0  0  0  2  0  0  0  0  0  0
    9.7720   -3.5250    0.1230 C   0  0  0  0  0  0  0  0  0  0  0  0
    8.9210   -4.4690   -0.4710 C   0  0  0  0  0  3  0  0  0  0  0  0
    7.8110   -4.9610    0.2210 C   0  0  0  0  0  3  0  0  0  0  0  0
    7.5400   -4.5240    1.5200 C   0  0  0  0  0  0  0  0  0  0  0  0
    6.1580   -5.1860    2.3170 Cl  0  0  0  0  0  0  0  0  0  0  0  0
    8.3860   -3.5930    2.1280 C   0  0  0  0  0  0  0  0  0  0  0  0
    8.1250   -3.0190    3.7380 Cl  0  0  0  0  0  0  0  0  0  0  0  0
    9.4980   -3.1020    1.4330 C   0  0  0  0  0  3  0  0  0  0  0  0
   11.7450    3.0970    2.3940 C   0  0  0  0  0  3  0  0  0  0  0  0
   13.1030    3.7460    2.6980 C   0  0  0  0  0  2  0  0  0  0  0  0
   13.4720    3.1710    4.0560 C   0  0  0  0  0  2  0  0  0  0  0  0
   12.1500    3.1700    4.8060 C   0  0  0  0  0  2  0  0  0  0  0  0
   11.1010    2.7970    3.7600 C   0  0  0  0  0  2  0  0  0  0  0  0
    8.8890    9.5140   -0.3070 O   0  0  0  0  0  0  0  0  0  0  0  0
    9.0290    9.1430    0.9030 C   0  0  0  0  0  0  0  0  0  0  0  0
    8.7630    9.8460    1.9280 O   0  0  0  0  0  1  0  0  0  0  0  0
  1  2  1  0  0  0  0
  2  3  2  0  0  0  0
  4  3  1  0  0  0  0
  5  4  2  0  0  0  0
  6  5  1  0  0  0  0
  6  1  2  0  0  0  0
  7  8  2  0  0  0  0
  7  5  1  0  0  0  0
  8  9  1  0  0  0  0
  9  4  1  0  0  0  0
  9 26  1  0  0  0  0
 10  8  1  0  0  0  0
 10 15  1  0  0  0  0
 11 10  2  0  0  0  0
 12 11  1  0  0  0  0
 12 13  2  0  0  0  0
 13 14  1  0  0  0  0
 14 15  2  0  0  0  0
 16 13  1  0  0  0  0
 16 17  1  0  0  0  0
 17 18  1  0  0  0  0
 18 25  1  0  0  0  0
 19 18  2  0  0  0  0
 19 20  1  0  0  0  0
 20 21  2  0  0  0  0
 21 23  1  0  0  0  0
 21 22  1  0  0  0  0
 23 24  1  0  0  0  0
 25 23  2  0  0  0  0
 26 27  1  0  0  0  0
 26 30  1  0  0  0  0
 27 28  1  0  0  0  0
 28 29  1  0  0  0  0
 30 29  1  0  0  0  0
 31 32  2  0  0  0  0
 32  1  1  0  0  0  0
 32 33  1  0  0  0  0
M  END
>  <minimizedAffinity>
-7.8387742

$$$$

 OpenBabel09122221203D

 33 37  0  0  0  0  0  0  0  0999 V2000
    9.5290    8.6490    1.2210 C   0  0  0  0  0  0  0  0  0  0  0  0
   10.1710    8.4220    2.4490 C   0  0  0  0  0  3  0  0  0  0  0  0
   10.6040    7.1490    2.8410 C   0  0  0  0  0  3  0  0  0  0  0  0
   10.3720    6.0880    1.9560 C   0  0  0  0  0  0  0  0  0  0  0  0
    9.7290    6.2730    0.7360 C   0  0  0  0  0  0  0  0  0  0  0  0
    9.3070    7.5560    0.3590 C   0  0  0  0  0  3  0  0  0  0  0  0
    9.6090    5.0810    0.0640 N   0  0  0  0  0  0  0  0  0  0  0  0
   10.1220    4.1580    0.8530 C   0  0  0  0  0  0  0  0  0  0  0  0
   10.6680    4.7390    1.9880 N   0  0  0  0  0  0  0  0  0  0  0  0
   10.1300    2.7310    0.5300 C   0  0  0  0  0  0  0  0  0  0  0  0
    9.4710    1.7980    1.3370 C   0  0  0  0  0  3  0  0  0  0  0  0
    9.4870    0.4400    1.0010 C   0  0  0  0  0  3  0  0  0  0  0  0
   10.1520   -0.0020   -0.1460 C   0  0  0  0  0  0  0  0  0  0  0  0
   10.7760    0.9290   -0.9750 C   0  0  0  0  0  3  0  0  0  0  0  0
   10.7620    2.2880   -0.6380 C   0  0  0  0  0  3  0  0  0  0  0  0
   10.0820   -1.3510   -0.3590 O   0  0  0  0  0  0  0  0  0  0  0  0
   10.6190   -1.8730   -1.5750 C   0  0  0  0  0  2  0  0  0  0  0  0
   12.0310   -2.4020   -1.4400 C   0  0  0  0  0  0  0  0  0  0  0  0
   12.8890   -2.3690   -2.5490 C   0  0  0  0  0  3  0  0  0  0  0  0
   14.2080   -2.8140   -2.4420 C   0  0  0  0  0  3  0  0  0  0  0  0
   14.6940   -3.2910   -1.2220 C   0  0  0  0  0  0  0  0  0  0  0  0
   16.3390   -3.8130   -1.1620 Cl  0  0  0  0  0  0  0  0  0  0  0  0
   13.8540   -3.3200   -0.1050 C   0  0  0  0  0  0  0  0  0  0  0  0
   14.3890   -3.8800    1.4400 Cl  0  0  0  0  0  0  0  0  0  0  0  0
   12.5320   -2.8720   -0.2150 C   0  0  0  0  0  3  0  0  0  0  0  0
   11.4550    4.0580    2.9980 C   0  0  0  0  0  3  0  0  0  0  0  0
   12.8880    3.7040    2.5760 C   0  0  0  0  0  2  0  0  0  0  0  0
   13.6320    3.6070    3.8990 C   0  0  0  0  0  2  0  0  0  0  0  0
   13.0610    4.7630    4.7060 C   0  0  0  0  0  2  0  0  0  0  0  0
   11.5800    4.8100    4.3370 C   0  0  0  0  0  2  0  0  0  0  0  0
    9.9460   10.9740    0.9250 O   0  0  0  0  0  1  0  0  0  0  0  0
    9.0810   10.0440    0.8340 C   0  0  0  0  0  0  0  0  0  0  0  0
    7.8800   10.1860    0.4440 O   0  0  0  0  0  0  0  0  0  0  0  0
  1  2  1  0  0  0  0
  2  3  2  0  0  0  0
  4  9  1  0  0  0  0
  4  3  1  0  0  0  0
  5  4  2  0  0  0  0
  6  5  1  0  0  0  0
  6  1  2  0  0  0  0
  7  5  1  0  0  0  0
  7  8  2  0  0  0  0
  8  9  1  0  0  0  0
  9 26  1  0  0  0  0
 10  8  1  0  0  0  0
 10 11  1  0  0  0  0
 12 11  2  0  0  0  0
 13 12  1  0  0  0  0
 14 15  1  0  0  0  0
 14 13  2  0  0  0  0
 15 10  2  0  0  0  0
 16 13  1  0  0  0  0
 17 18  1  0  0  0  0
 17 16  1  0  0  0  0
 18 25  1  0  0  0  0
 19 20  1  0  0  0  0
 19 18  2  0  0  0  0
 20 21  2  0  0  0  0
 21 22  1  0  0  0  0
 21 23  1  0  0  0  0
 23 24  1  0  0  0  0
 25 23  2  0  0  0  0
 26 30  1  0  0  0  0
 27 26  1  0  0  0  0
 27 28  1  0  0  0  0
 28 29  1  0  0  0  0
 30 29  1  0  0  0  0
 32 31  1  0  0  0  0
 32  1  1  0  0  0  0
 33 32  2  0  0  0  0
M  END
>  <minimizedAffinity>
-7.70586395

$$$$

 OpenBabel09122221203D

 33 37  0  0  0  0  0  0  0  0999 V2000
   14.5430    8.5260   -2.0850 C   0  0  0  0  0  0  0  0  0  0  0  0
   13.4530    9.3610   -1.7880 C   0  0  0  0  0  3  0  0  0  0  0  0
   12.3530    8.9170   -1.0440 C   0  0  0  0  0  3  0  0  0  0  0  0
   12.3700    7.5890   -0.5970 C   0  0  0  0  0  0  0  0  0  0  0  0
   13.4270    6.7290   -0.8810 C   0  0  0  0  0  0  0  0  0  0  0  0
   14.5230    7.1950   -1.6230 C   0  0  0  0  0  3  0  0  0  0  0  0
   13.1980    5.4850   -0.3480 N   0  0  0  0  0  0  0  0  0  0  0  0
   12.0100    5.5380    0.2210 C   0  0  0  0  0  0  0  0  0  0  0  0
   11.5010    6.8260    0.1580 N   0  0  0  0  0  0  0  0  0  0  0  0
   11.3640    4.3880    0.8540 C   0  0  0  0  0  0  0  0  0  0  0  0
   10.2130    3.8090    0.3100 C   0  0  0  0  0  3  0  0  0  0  0  0
    9.6200    2.7050    0.9310 C   0  0  0  0  0  3  0  0  0  0  0  0
   10.1690    2.1610    2.0940 C   0  0  0  0  0  0  0  0  0  0  0  0
   11.3390    2.7100    2.6170 C   0  0  0  0  0  3  0  0  0  0  0  0
   11.9320    3.8150    1.9980 C   0  0  0  0  0  3  0  0  0  0  0  0
    9.4930    1.0810    2.5910 O   0  0  0  0  0  0  0  0  0  0  0  0
    8.7320    0.2830    1.6820 C   0  0  0  0  0  2  0  0  0  0  0  0
    9.5760   -0.6340    0.8230 C   0  0  0  0  0  0  0  0  0  0  0  0
    9.8570   -1.9330    1.2710 C   0  0  0  0  0  3  0  0  0  0  0  0
   10.6000   -2.8130    0.4810 C   0  0  0  0  0  3  0  0  0  0  0  0
   11.0670   -2.4120   -0.7730 C   0  0  0  0  0  0  0  0  0  0  0  0
   11.9670   -3.5590   -1.6980 Cl  0  0  0  0  0  0  0  0  0  0  0  0
   10.7860   -1.1250   -1.2380 C   0  0  0  0  0  0  0  0  0  0  0  0
   11.3140   -0.5630   -2.7840 Cl  0  0  0  0  0  0  0  0  0  0  0  0
   10.0400   -0.2440   -0.4440 C   0  0  0  0  0  3  0  0  0  0  0  0
   10.2960    7.2990    0.8140 C   0  0  0  0  0  3  0  0  0  0  0  0
   10.5240    8.3390    1.9210 C   0  0  0  0  0  2  0  0  0  0  0  0
    9.2000    9.0820    1.9840 C   0  0  0  0  0  2  0  0  0  0  0  0
    8.8040    9.2170    0.5220 C   0  0  0  0  0  2  0  0  0  0  0  0
    9.2410    7.9050   -0.1280 C   0  0  0  0  0  2  0  0  0  0  0  0
   16.5320    8.1870   -3.3470 O   0  0  0  0  0  0  0  0  0  0  0  0
   15.7160    9.0500   -2.8880 C   0  0  0  0  0  0  0  0  0  0  0  0
   15.8010   10.3080   -3.0490 O   0  0  0  0  0  1  0  0  0  0  0  0
  1  2  2  0  0  0  0
  1  6  1  0  0  0  0
  2  3  1  0  0  0  0
  3  4  2  0  0  0  0
  4  9  1  0  0  0  0
  5  4  1  0  0  0  0
  5  7  1  0  0  0  0
  6  5  2  0  0  0  0
  7  8  2  0  0  0  0
  8 10  1  0  0  0  0
  9  8  1  0  0  0  0
  9 26  1  0  0  0  0
 10 15  1  0  0  0  0
 11 10  2  0  0  0  0
 11 12  1  0  0  0  0
 12 13  2  0  0  0  0
 13 16  1  0  0  0  0
 13 14  1  0  0  0  0
 15 14  2  0  0  0  0
 17 16  1  0  0  0  0
 18 19  1  0  0  0  0
 18 17  1  0  0  0  0
 20 19  2  0  0  0  0
 21 20  1  0  0  0  0
 22 21  1  0  0  0  0
 23 21  2  0  0  0  0
 23 25  1  0  0  0  0
 24 23  1  0  0  0  0
 25 18  2  0  0  0  0
 26 27  1  0  0  0  0
 27 28  1  0  0  0  0
 29 28  1  0  0  0  0
 30 29  1  0  0  0  0
 30 26  1  0  0  0  0
 31 32  2  0  0  0  0
 32  1  1  0  0  0  0
 33 32  1  0  0  0  0
M  END
>  <minimizedAffinity>
-7.42688131

$$$$

 OpenBabel09122221203D

 33 37  0  0  0  0  0  0  0  0999 V2000
   14.8700    8.9640   -2.9230 C   0  0  0  0  0  0  0  0  0  0  0  0
   14.1670    9.9090   -2.1590 C   0  0  0  0  0  3  0  0  0  0  0  0
   13.2760    9.5370   -1.1450 C   0  0  0  0  0  3  0  0  0  0  0  0
   13.1020    8.1670   -0.9100 C   0  0  0  0  0  0  0  0  0  0  0  0
   13.7730    7.2010   -1.6540 C   0  0  0  0  0  0  0  0  0  0  0  0
   14.6640    7.5940   -2.6620 C   0  0  0  0  0  3  0  0  0  0  0  0
   13.4200    5.9390   -1.2430 N   0  0  0  0  0  0  0  0  0  0  0  0
   12.5170    6.0970   -0.2950 C   0  0  0  0  0  0  0  0  0  0  0  0
   12.3480    7.4430   -0.0070 N   0  0  0  0  0  0  0  0  0  0  0  0
   11.8350    4.9840    0.3670 C   0  0  0  0  0  0  0  0  0  0  0  0
   12.4230    4.3000    1.4350 C   0  0  0  0  0  3  0  0  0  0  0  0
   11.7460    3.2450    2.0550 C   0  0  0  0  0  3  0  0  0  0  0  0
   10.4720    2.8660    1.6240 C   0  0  0  0  0  0  0  0  0  0  0  0
    9.8640    3.5710    0.5870 C   0  0  0  0  0  3  0  0  0  0  0  0
   10.5420    4.6260   -0.0350 C   0  0  0  0  0  3  0  0  0  0  0  0
    9.9230    1.8260    2.3230 O   0  0  0  0  0  0  0  0  0  0  0  0
    8.9800    0.9860    1.6550 C   0  0  0  0  0  2  0  0  0  0  0  0
    9.6190   -0.1400    0.8700 C   0  0  0  0  0  0  0  0  0  0  0  0
    9.6570   -1.4290    1.4210 C   0  0  0  0  0  3  0  0  0  0  0  0
   10.2050   -2.4950    0.7020 C   0  0  0  0  0  3  0  0  0  0  0  0
   10.7130   -2.2910   -0.5820 C   0  0  0  0  0  0  0  0  0  0  0  0
   11.3620   -3.6580   -1.4150 Cl  0  0  0  0  0  0  0  0  0  0  0  0
   10.6710   -1.0140   -1.1500 C   0  0  0  0  0  0  0  0  0  0  0  0
   11.2650   -0.6880   -2.7400 Cl  0  0  0  0  0  0  0  0  0  0  0  0
   10.1210    0.0520   -0.4280 C   0  0  0  0  0  3  0  0  0  0  0  0
   11.5610    7.9880    1.0830 C   0  0  0  0  0  3  0  0  0  0  0  0
   10.0480    7.7520    0.9740 C   0  0  0  0  0  2  0  0  0  0  0  0
    9.5750    7.8300    2.4170 C   0  0  0  0  0  2  0  0  0  0  0  0
   10.6690    7.1040    3.1840 C   0  0  0  0  0  2  0  0  0  0  0  0
   11.9690    7.4960    2.4840 C   0  0  0  0  0  2  0  0  0  0  0  0
   16.2970   10.5900   -3.9140 O   0  0  0  0  0  1  0  0  0  0  0  0
   15.8290    9.4110   -4.0080 C   0  0  0  0  0  0  0  0  0  0  0  0
   16.0980    8.5780   -4.9290 O   0  0  0  0  0  0  0  0  0  0  0  0
  1  6  2  0  0  0  0
  1  2  1  0  0  0  0
  2  3  2  0  0  0  0
  3  4  1  0  0  0  0
  4  9  1  0  0  0  0
  5  7  1  0  0  0  0
  5  4  2  0  0  0  0
  6  5  1  0  0  0  0
  7  8  2  0  0  0  0
  8  9  1  0  0  0  0
  8 10  1  0  0  0  0
  9 26  1  0  0  0  0
 10 11  1  0  0  0  0
 11 12  2  0  0  0  0
 13 12  1  0  0  0  0
 13 16  1  0  0  0  0
 14 13  2  0  0  0  0
 15 10  2  0  0  0  0
 15 14  1  0  0  0  0
 17 16  1  0  0  0  0
 18 19  1  0  0  0  0
 18 17  1  0  0  0  0
 20 19  2  0  0  0  0
 21 20  1  0  0  0  0
 22 21  1  0  0  0  0
 23 21  2  0  0  0  0
 23 25  1  0  0  0  0
 24 23  1  0  0  0  0
 25 18  2  0  0  0  0
 26 30  1  0  0  0  0
 27 26  1  0  0  0  0
 27 28  1  0  0  0  0
 28 29  1  0  0  0  0
 30 29  1  0  0  0  0
 32 31  1  0  0  0  0
 32  1  1  0  0  0  0
 33 32  2  0  0  0  0
M  END
>  <minimizedAffinity>
-7.10407162

$$$$

 OpenBabel09122221203D

 33 37  0  0  0  0  0  0  0  0999 V2000
   12.8630   10.3650   -3.5080 C   0  0  0  0  0  0  0  0  0  0  0  0
   12.1010   11.1530   -2.6300 C   0  0  0  0  0  3  0  0  0  0  0  0
   11.5000   10.6240   -1.4820 C   0  0  0  0  0  3  0  0  0  0  0  0
   11.6830    9.2580   -1.2290 C   0  0  0  0  0  0  0  0  0  0  0  0
   12.4230    8.4430   -2.0800 C   0  0  0  0  0  0  0  0  0  0  0  0
   13.0210    8.9930   -3.2240 C   0  0  0  0  0  3  0  0  0  0  0  0
   12.4400    7.1490   -1.6230 N   0  0  0  0  0  0  0  0  0  0  0  0
   11.6960    7.1310   -0.5340 C   0  0  0  0  0  0  0  0  0  0  0  0
   11.2750    8.4140   -0.2150 N   0  0  0  0  0  0  0  0  0  0  0  0
   11.4040    5.9160    0.2270 C   0  0  0  0  0  0  0  0  0  0  0  0
   10.2760    5.1370   -0.0480 C   0  0  0  0  0  3  0  0  0  0  0  0
   10.0250    3.9760    0.6890 C   0  0  0  0  0  3  0  0  0  0  0  0
   10.8980    3.5720    1.7030 C   0  0  0  0  0  0  0  0  0  0  0  0
   12.0450    4.3240    1.9530 C   0  0  0  0  0  3  0  0  0  0  0  0
   12.2960    5.4870    1.2170 C   0  0  0  0  0  3  0  0  0  0  0  0
   10.5370    2.4170    2.3380 O   0  0  0  0  0  0  0  0  0  0  0  0
    9.3220    1.7790    1.9400 C   0  0  0  0  0  2  0  0  0  0  0  0
    9.5260    0.4130    1.3200 C   0  0  0  0  0  0  0  0  0  0  0  0
    9.0370   -0.7240    1.9800 C   0  0  0  0  0  3  0  0  0  0  0  0
    9.1770   -1.9920    1.4110 C   0  0  0  0  0  3  0  0  0  0  0  0
    9.8000   -2.1430    0.1690 C   0  0  0  0  0  0  0  0  0  0  0  0
    9.9250   -3.7400   -0.4770 Cl  0  0  0  0  0  0  0  0  0  0  0  0
   10.2820   -1.0180   -0.5050 C   0  0  0  0  0  0  0  0  0  0  0  0
   11.0470   -1.1240   -2.0510 Cl  0  0  0  0  0  0  0  0  0  0  0  0
   10.1400    0.2520    0.0670 C   0  0  0  0  0  3  0  0  0  0  0  0
   10.5770    8.8040    0.9960 C   0  0  0  0  0  3  0  0  0  0  0  0
   11.2980    9.8560    1.8510 C   0  0  0  0  0  2  0  0  0  0  0  0
   10.1680   10.5090    2.6320 C   0  0  0  0  0  2  0  0  0  0  0  0
    9.0510   10.6170    1.6060 C   0  0  0  0  0  2  0  0  0  0  0  0
    9.1500    9.3380    0.7770 C   0  0  0  0  0  2  0  0  0  0  0  0
   12.7170   11.4910   -5.6000 O   0  0  0  0  0  0  0  0  0  0  0  0
   13.5010   10.9800   -4.7370 C   0  0  0  0  0  0  0  0  0  0  0  0
   14.7690   10.9440   -4.8180 O   0  0  0  0  0  1  0  0  0  0  0  0
  1  6  2  0  0  0  0
  1  2  1  0  0  0  0
  2  3  2  0  0  0  0
  3  4  1  0  0  0  0
  4  9  1  0  0  0  0
  5  7  1  0  0  0  0
  5  4  2  0  0  0  0
  6  5  1  0  0  0  0
  7  8  2  0  0  0  0
  8  9  1  0  0  0  0
  8 10  1  0  0  0  0
  9 26  1  0  0  0  0
 10 15  1  0  0  0  0
 11 10  2  0  0  0  0
 11 12  1  0  0  0  0
 12 13  2  0  0  0  0
 13 14  1  0  0  0  0
 13 16  1  0  0  0  0
 15 14  2  0  0  0  0
 17 16  1  0  0  0  0
 18 17  1  0  0  0  0
 18 19  1  0  0  0  0
 20 19  2  0  0  0  0
 21 20  1  0  0  0  0
 22 21  1  0  0  0  0
 23 25  1  0  0  0  0
 23 21  2  0  0  0  0
 24 23  1  0  0  0  0
 25 18  2  0  0  0  0
 26 27  1  0  0  0  0
 27 28  1  0  0  0  0
 29 28  1  0  0  0  0
 30 26  1  0  0  0  0
 30 29  1  0  0  0  0
 31 32  2  0  0  0  0
 32  1  1  0  0  0  0
 33 32  1  0  0  0  0
M  END
>  <minimizedAffinity>
-6.7395587

$$$$

 OpenBabel09122221203D

 33 37  0  0  0  0  0  0  0  0999 V2000
    9.6530    0.6440    2.3270 C   0  0  0  0  0  0  0  0  0  0  0  0
   10.1350    1.2910    3.4760 C   0  0  0  0  0  3  0  0  0  0  0  0
   10.4600    2.6520    3.4860 C   0  0  0  0  0  3  0  0  0  0  0  0
   10.2880    3.3650    2.2920 C   0  0  0  0  0  0  0  0  0  0  0  0
    9.8230    2.7570    1.1300 C   0  0  0  0  0  0  0  0  0  0  0  0
    9.4990    1.3920    1.1420 C   0  0  0  0  0  3  0  0  0  0  0  0
    9.7590    3.6610    0.0990 N   0  0  0  0  0  0  0  0  0  0  0  0
   10.2120    4.8020    0.5790 C   0  0  0  0  0  0  0  0  0  0  0  0
   10.4760    4.6870    1.9360 N   0  0  0  0  0  0  0  0  0  0  0  0
   10.3670    6.0140   -0.2260 C   0  0  0  0  0  0  0  0  0  0  0  0
   11.6310    6.5080   -0.5630 C   0  0  0  0  0  3  0  0  0  0  0  0
   11.7520    7.6640   -1.3410 C   0  0  0  0  0  3  0  0  0  0  0  0
   10.6160    8.3360   -1.8000 C   0  0  0  0  0  0  0  0  0  0  0  0
    9.3540    7.8250   -1.5000 C   0  0  0  0  0  3  0  0  0  0  0  0
    9.2330    6.6690   -0.7200 C   0  0  0  0  0  3  0  0  0  0  0  0
   10.8780    9.4450   -2.5550 O   0  0  0  0  0  0  0  0  0  0  0  0
   10.1550   10.6440   -2.2690 C   0  0  0  0  0  2  0  0  0  0  0  0
   10.1830   11.0380   -0.8080 C   0  0  0  0  0  0  0  0  0  0  0  0
    8.9820   11.0880   -0.0840 C   0  0  0  0  0  3  0  0  0  0  0  0
    8.9840   11.4100    1.2750 C   0  0  0  0  0  3  0  0  0  0  0  0
   10.1850   11.6790    1.9340 C   0  0  0  0  0  0  0  0  0  0  0  0
   10.1090   12.0570    3.6180 Cl  0  0  0  0  0  0  0  0  0  0  0  0
   11.3900   11.6220    1.2290 C   0  0  0  0  0  0  0  0  0  0  0  0
   12.9170   11.9260    1.9810 Cl  0  0  0  0  0  0  0  0  0  0  0  0
   11.3870   11.2980   -0.1330 C   0  0  0  0  0  3  0  0  0  0  0  0
   10.8330    5.7720    2.8290 C   0  0  0  0  0  3  0  0  0  0  0  0
   12.2990    6.2210    2.7530 C   0  0  0  0  0  2  0  0  0  0  0  0
   12.2540    7.6570    3.2510 C   0  0  0  0  0  2  0  0  0  0  0  0
   10.9840    8.2060    2.6210 C   0  0  0  0  0  2  0  0  0  0  0  0
    9.9880    7.0490    2.6660 C   0  0  0  0  0  2  0  0  0  0  0  0
    9.3020   -1.3960    3.5020 O   0  0  0  0  0  1  0  0  0  0  0  0
    9.3080   -0.8310    2.3610 C   0  0  0  0  0  0  0  0  0  0  0  0
    9.0480   -1.3970    1.2530 O   0  0  0  0  0  0  0  0  0  0  0  0
  1 32  1  0  0  0  0
  1  2  1  0  0  0  0
  2  3  2  0  0  0  0
  4  3  1  0  0  0  0
  5  6  1  0  0  0  0
  5  4  2  0  0  0  0
  6  1  2  0  0  0  0
  7  8  2  0  0  0  0
  7  5  1  0  0  0  0
  8  9  1  0  0  0  0
  9  4  1  0  0  0  0
  9 26  1  0  0  0  0
 10  8  1  0  0  0  0
 11 10  1  0  0  0  0
 12 11  2  0  0  0  0
 13 14  2  0  0  0  0
 13 12  1  0  0  0  0
 14 15  1  0  0  0  0
 15 10  2  0  0  0  0
 16 17  1  0  0  0  0
 16 13  1  0  0  0  0
 17 18  1  0  0  0  0
 18 25  2  0  0  0  0
 18 19  1  0  0  0  0
 19 20  2  0  0  0  0
 20 21  1  0  0  0  0
 21 22  1  0  0  0  0
 23 21  2  0  0  0  0
 23 24  1  0  0  0  0
 25 23  1  0  0  0  0
 27 26  1  0  0  0  0
 27 28  1  0  0  0  0
 29 30  1  0  0  0  0
 29 28  1  0  0  0  0
 30 26  1  0  0  0  0
 32 31  1  0  0  0  0
 33 32  2  0  0  0  0
M  END
>  <minimizedAffinity>
-6.69572687

$$$$

 OpenBabel09122221203D

 33 37  0  0  0  0  0  0  0  0999 V2000
    9.0600   -1.4960    3.0830 C   0  0  0  0  0  0  0  0  0  0  0  0
    9.6210   -1.0400    4.2860 C   0  0  0  0  0  3  0  0  0  0  0  0
   10.1780    0.2380    4.4120 C   0  0  0  0  0  3  0  0  0  0  0  0
   10.1610    1.0650    3.2810 C   0  0  0  0  0  0  0  0  0  0  0  0
    9.6240    0.6430    2.0690 C   0  0  0  0  0  0  0  0  0  0  0  0
    9.0660   -0.6400    1.9630 C   0  0  0  0  0  3  0  0  0  0  0  0
    9.7420    1.6250    1.1160 N   0  0  0  0  0  0  0  0  0  0  0  0
   10.3760    2.6260    1.6940 C   0  0  0  0  0  0  0  0  0  0  0  0
   10.5850    2.3570    3.0380 N   0  0  0  0  0  0  0  0  0  0  0  0
   10.7590    3.8530    0.9940 C   0  0  0  0  0  0  0  0  0  0  0  0
   12.0870    4.1010    0.6320 C   0  0  0  0  0  3  0  0  0  0  0  0
   12.4250    5.2780   -0.0440 C   0  0  0  0  0  3  0  0  0  0  0  0
   11.4440    6.2170   -0.3740 C   0  0  0  0  0  0  0  0  0  0  0  0
   10.1130    5.9550   -0.0510 C   0  0  0  0  0  3  0  0  0  0  0  0
    9.7750    4.7790    0.6270 C   0  0  0  0  0  3  0  0  0  0  0  0
   11.9110    7.3160   -1.0390 O   0  0  0  0  0  0  0  0  0  0  0  0
   12.5760    8.3310   -0.2850 C   0  0  0  0  0  2  0  0  0  0  0  0
   11.6650    9.0750    0.6680 C   0  0  0  0  0  0  0  0  0  0  0  0
   11.9020    8.9990    2.0490 C   0  0  0  0  0  3  0  0  0  0  0  0
   11.1020    9.7070    2.9480 C   0  0  0  0  0  3  0  0  0  0  0  0
   10.0590   10.5110    2.4820 C   0  0  0  0  0  0  0  0  0  0  0  0
    9.1200   11.3670    3.6520 Cl  0  0  0  0  0  0  0  0  0  0  0  0
    9.8180   10.6060    1.1090 C   0  0  0  0  0  0  0  0  0  0  0  0
    8.5570   11.5920    0.4560 Cl  0  0  0  0  0  0  0  0  0  0  0  0
   10.6220    9.8950    0.2090 C   0  0  0  0  0  3  0  0  0  0  0  0
   11.1050    3.2870    4.0220 C   0  0  0  0  0  3  0  0  0  0  0  0
   12.6240    3.5020    3.9750 C   0  0  0  0  0  2  0  0  0  0  0  0
   12.8060    4.8750    4.6000 C   0  0  0  0  0  2  0  0  0  0  0  0
   11.6440    5.6740    4.0330 C   0  0  0  0  0  2  0  0  0  0  0  0
   10.4750    4.6910    3.9820 C   0  0  0  0  0  2  0  0  0  0  0  0
    7.9140   -3.3490    4.0420 O   0  0  0  0  0  1  0  0  0  0  0  0
    8.4620   -2.8860    2.9910 C   0  0  0  0  0  0  0  0  0  0  0  0
    8.5470   -3.4870    1.8740 O   0  0  0  0  0  0  0  0  0  0  0  0
  1  2  1  0  0  0  0
  2  3  2  0  0  0  0
  4  3  1  0  0  0  0
  5  4  2  0  0  0  0
  6  5  1  0  0  0  0
  6  1  2  0  0  0  0
  7  8  2  0  0  0  0
  7  5  1  0  0  0  0
  8  9  1  0  0  0  0
  9  4  1  0  0  0  0
  9 26  1  0  0  0  0
 10  8  1  0  0  0  0
 11 10  1  0  0  0  0
 12 11  2  0  0  0  0
 13 14  2  0  0  0  0
 13 12  1  0  0  0  0
 14 15  1  0  0  0  0
 15 10  2  0  0  0  0
 16 13  1  0  0  0  0
 16 17  1  0  0  0  0
 17 18  1  0  0  0  0
 18 19  1  0  0  0  0
 19 20  2  0  0  0  0
 21 20  1  0  0  0  0
 21 22  1  0  0  0  0
 23 21  2  0  0  0  0
 24 23  1  0  0  0  0
 25 18  2  0  0  0  0
 25 23  1  0  0  0  0
 27 26  1  0  0  0  0
 27 28  1  0  0  0  0
 29 28  1  0  0  0  0
 30 26  1  0  0  0  0
 30 29  1  0  0  0  0
 32  1  1  0  0  0  0
 32 31  1  0  0  0  0
 33 32  2  0  0  0  0
M  END
>  <minimizedAffinity>
-6.49191284

$$$$
