
 OpenBabel09122222393D

 33 37  0  0  0  0  0  0  0  0999 V2000
    9.0600   -1.4960    3.0830 C   0  0  0  0  0  0  0  0  0  0  0  0
    9.6210   -1.0400    4.2860 C   0  0  0  0  0  3  0  0  0  0  0  0
   10.1780    0.2380    4.4120 C   0  0  0  0  0  3  0  0  0  0  0  0
   10.1610    1.0650    3.2810 C   0  0  0  0  0  0  0  0  0  0  0  0
    9.6240    0.6430    2.0690 C   0  0  0  0  0  0  0  0  0  0  0  0
    9.0660   -0.6400    1.9630 C   0  0  0  0  0  3  0  0  0  0  0  0
    9.7420    1.6250    1.1160 N   0  0  0  0  0  0  0  0  0  0  0  0
   10.3760    2.6260    1.6940 C   0  0  0  0  0  0  0  0  0  0  0  0
   10.5850    2.3570    3.0380 N   0  0  0  0  0  0  0  0  0  0  0  0
   10.7590    3.8530    0.9940 C   0  0  0  0  0  0  0  0  0  0  0  0
   12.0870    4.1010    0.6320 C   0  0  0  0  0  3  0  0  0  0  0  0
   12.4250    5.2780   -0.0440 C   0  0  0  0  0  3  0  0  0  0  0  0
   11.4440    6.2170   -0.3740 C   0  0  0  0  0  0  0  0  0  0  0  0
   10.1130    5.9550   -0.0510 C   0  0  0  0  0  3  0  0  0  0  0  0
    9.7750    4.7790    0.6270 C   0  0  0  0  0  3  0  0  0  0  0  0
   11.9110    7.3160   -1.0390 O   0  0  0  0  0  0  0  0  0  0  0  0
   12.5760    8.3310   -0.2850 C   0  0  0  0  0  2  0  0  0  0  0  0
   11.6650    9.0750    0.6680 C   0  0  0  0  0  0  0  0  0  0  0  0
   11.9020    8.9990    2.0490 C   0  0  0  0  0  3  0  0  0  0  0  0
   11.1020    9.7070    2.9480 C   0  0  0  0  0  3  0  0  0  0  0  0
   10.0590   10.5110    2.4820 C   0  0  0  0  0  0  0  0  0  0  0  0
    9.1200   11.3670    3.6520 Cl  0  0  0  0  0  0  0  0  0  0  0  0
    9.8180   10.6060    1.1090 C   0  0  0  0  0  0  0  0  0  0  0  0
    8.5570   11.5920    0.4560 Cl  0  0  0  0  0  0  0  0  0  0  0  0
   10.6220    9.8950    0.2090 C   0  0  0  0  0  3  0  0  0  0  0  0
   11.1050    3.2870    4.0220 C   0  0  0  0  0  3  0  0  0  0  0  0
   12.6240    3.5020    3.9750 C   0  0  0  0  0  2  0  0  0  0  0  0
   12.8060    4.8750    4.6000 C   0  0  0  0  0  2  0  0  0  0  0  0
   11.6440    5.6740    4.0330 C   0  0  0  0  0  2  0  0  0  0  0  0
   10.4750    4.6910    3.9820 C   0  0  0  0  0  2  0  0  0  0  0  0
    7.9140   -3.3490    4.0420 O   0  0  0  0  0  1  0  0  0  0  0  0
    8.4620   -2.8860    2.9910 C   0  0  0  0  0  0  0  0  0  0  0  0
    8.5470   -3.4870    1.8740 O   0  0  0  0  0  0  0  0  0  0  0  0
  1  2  1  0  0  0  0
  2  3  2  0  0  0  0
  4  3  1  0  0  0  0
  5  4  2  0  0  0  0
  6  5  1  0  0  0  0
  6  1  2  0  0  0  0
  7  8  2  0  0  0  0
  7  5  1  0  0  0  0
  8  9  1  0  0  0  0
  9  4  1  0  0  0  0
  9 26  1  0  0  0  0
 10  8  1  0  0  0  0
 11 10  1  0  0  0  0
 12 11  2  0  0  0  0
 13 14  2  0  0  0  0
 13 12  1  0  0  0  0
 14 15  1  0  0  0  0
 15 10  2  0  0  0  0
 16 13  1  0  0  0  0
 16 17  1  0  0  0  0
 17 18  1  0  0  0  0
 18 19  1  0  0  0  0
 19 20  2  0  0  0  0
 21 20  1  0  0  0  0
 21 22  1  0  0  0  0
 23 21  2  0  0  0  0
 24 23  1  0  0  0  0
 25 18  2  0  0  0  0
 25 23  1  0  0  0  0
 27 26  1  0  0  0  0
 27 28  1  0  0  0  0
 29 28  1  0  0  0  0
 30 26  1  0  0  0  0
 30 29  1  0  0  0  0
 32  1  1  0  0  0  0
 32 31  1  0  0  0  0
 33 32  2  0  0  0  0
M  END
>  <minimizedAffinity>
-6.49191284

$$$$
