
 OpenBabel09182209113D

 74104  0  0  1  0  0  0  0  0999 V2000
    9.8740   -0.0940    8.7120 C   0  0  0  0  0  0  0  0  0  0  0  0
   10.3490    1.0200    9.6690 C   0  0  1  0  0  0  0  0  0  0  0  0
   11.0900    0.6670   10.9940 C   0  0  0  0  0  0  0  0  0  0  0  0
   12.3930    0.2790   10.9430 C   0  0  0  0  0  0  0  0  0  0  0  0
   13.3370    0.6530   11.9080 C   0  0  0  0  0  0  0  0  0  0  0  0
   13.0390    1.5650   12.9710 C   0  0  0  0  0  0  0  0  0  0  0  0
   13.9130    2.6400   13.1380 C   0  0  0  0  0  0  0  0  0  0  0  0
   13.0310    3.7400   12.9820 C   0  0  1  0  0  3  0  0  0  0  0  0
   13.0850    4.2060   11.6830 C   0  0  2  0  0  3  0  0  0  0  0  0
   14.3580    4.5550   11.3030 C   0  0  2  0  0  3  0  0  0  0  0  0
   14.3440    5.4300   10.3060 C   0  0  2  0  0  3  0  0  0  0  0  0
   13.0560    5.7540    9.9570 C   0  0  1  0  0  3  0  0  0  0  0  0
   12.9860    6.9470    9.2380 C   0  0  1  0  0  3  0  0  0  0  0  0
   13.8230    6.8690    8.0750 C   0  0  0  0  0  0  0  0  0  0  0  0
   12.9130    6.5150    7.0720 C   0  0  0  0  0  0  0  0  0  0  0  0
   11.5760    6.7100    7.6240 C   0  0  0  0  0  0  0  0  0  0  0  0
   10.7630    5.5930    7.4970 C   0  0  0  0  0  0  0  0  0  0  0  0
   11.0410    4.4350    6.6880 C   0  0  0  0  0  0  0  0  0  0  0  0
   12.3000    4.3190    6.0800 C   0  0  0  0  0  0  0  0  0  0  0  0
   13.0130    3.0350    6.0930 C   0  0  0  0  0  0  0  0  0  0  0  0
   12.4620    1.8840    6.6650 C   0  0  0  0  0  0  0  0  0  0  0  0
   13.2450    0.9870    7.4270 C   0  0  0  0  0  0  0  0  0  0  0  0
   12.5090    0.3950    8.4590 C   0  0  0  0  0  0  0  0  0  0  0  0
   13.0630    0.0800    9.7100 C   0  0  0  0  0  0  0  0  0  0  0  0
   14.3990    0.3630    9.8900 C   0  0  0  0  0  0  0  0  0  0  0  0
   14.5700    0.7320   11.2020 C   0  0  0  0  0  0  0  0  0  0  0  0
   15.5300    1.7230   11.4490 C   0  0  0  0  0  0  0  0  0  0  0  0
   15.1370    2.6800   12.3250 C   0  0  0  0  0  0  0  0  0  0  0  0
   15.4520    3.7980   11.6340 C   0  0  1  0  0  3  0  0  0  0  0  0
   16.2950    3.6380   10.5810 C   0  0  0  0  0  0  0  0  0  0  0  0
   16.2690    4.5850    9.4590 C   0  0  0  0  0  0  0  0  0  0  0  0
   15.4120    5.6390    9.4670 C   0  0  1  0  0  3  0  0  0  0  0  0
   15.0630    6.1160    8.2500 C   0  0  0  0  0  0  0  0  0  0  0  0
   15.4360    5.0910    7.4410 C   0  0  0  0  0  0  0  0  0  0  0  0
   14.4690    4.6510    6.5080 C   0  0  0  0  0  0  0  0  0  0  0  0
   13.2350    5.3140    6.3480 C   0  0  0  0  0  0  0  0  0  0  0  0
   14.3450    3.2880    6.3530 C   0  0  0  0  0  0  0  0  0  0  0  0
   15.1520    2.3600    7.0960 C   0  0  0  0  0  0  0  0  0  0  0  0
   14.5960    1.2360    7.6220 C   0  0  0  0  0  0  0  0  0  0  0  0
   15.1750    0.9280    8.8190 C   0  0  0  0  0  0  0  0  0  0  0  0
   16.1060    1.8830    9.0540 C   0  0  0  0  0  0  0  0  0  0  0  0
   16.2610    2.2990   10.3970 C   0  0  0  0  0  0  0  0  0  0  0  0
   16.0840    2.7780    7.9870 C   0  0  0  0  0  0  0  0  0  0  0  0
   16.2060    4.1740    8.1700 C   0  0  0  0  0  0  0  0  0  0  0  0
   11.0330    0.7740    8.2760 C   0  0  1  0  0  0  0  0  0  0  0  0
   10.9910    1.7750    7.0430 C   0  0  0  0  0  0  0  0  0  0  0  0
   10.3470    3.1710    7.2720 C   0  0  0  0  0  0  0  0  0  0  0  0
   10.3080    3.5520    8.7130 C   0  0  0  0  0  0  0  0  0  0  0  0
   10.4160    5.0840    8.7760 C   0  0  0  0  0  0  0  0  0  0  0  0
   10.5060    5.8830   10.3130 C   0  0  1  0  0  0  0  0  0  0  0  0
   10.5570    4.6110   11.8730 C   0  0  1  0  0  0  0  0  0  0  0  0
   10.4720    2.9100   11.3160 C   0  0  0  0  0  0  0  0  0  0  0  0
   10.2680    2.5490    9.7980 C   0  0  0  0  0  0  0  0  0  0  0  0
   10.6400    1.6970   12.1290 C   0  0  0  0  0  0  0  0  0  0  0  0
   11.5600    2.1240   13.2770 C   0  0  0  0  0  0  0  0  0  0  0  0
   11.6600    3.8910   13.6000 C   0  0  2  0  0  3  0  0  0  0  0  0
   11.0990    5.1280   13.0610 C   0  0  0  0  0  2  0  0  0  0  0  0
   10.7680    5.7470   11.4660 C   0  0  1  0  0  3  0  0  0  0  0  0
   10.9370    7.1850   10.6500 C   0  0  0  0  0  1  0  0  0  0  0  0
   11.6410    7.4800    9.0600 C   0  0  0  0  0  2  0  0  0  0  0  0
    9.4140    4.5200   10.5450 C   0  0  0  0  0  0  0  0  0  0  0  0
   11.6770    4.4890   10.4380 C   0  0  2  0  0  3  0  0  0  0  0  0
    7.6360    0.7120    8.5630 O   0  0  0  0  0  1  0  0  0  0  0  0
    8.5780    0.0270    8.0170 C   0  0  0  0  0  0  0  0  0  0  0  0
    8.4310   -0.4750    6.8500 O   0  0  0  0  0  0  0  0  0  0  0  0
   10.2430   -1.5170    8.9650 C   0  0  0  0  0  0  0  0  0  0  0  0
   10.8510   -2.2150    8.0720 O   0  0  0  0  0  0  0  0  0  0  0  0
    9.8680   -2.0700   10.0680 O   0  0  0  0  0  1  0  0  0  0  0  0
    8.2500    5.4940    9.6980 C   0  0  0  0  0  0  0  0  0  0  0  0
    8.0310    6.6920   10.1070 O   0  0  0  0  0  1  0  0  0  0  0  0
    7.5410    5.0110    8.7260 O   0  0  0  0  0  0  0  0  0  0  0  0
    8.3040    4.1710   11.8300 C   0  0  0  0  0  0  0  0  0  0  0  0
    8.1080    5.0220   12.7690 O   0  0  0  0  0  1  0  0  0  0  0  0
    7.6230    3.0700   11.8000 O   0  0  0  0  0  0  0  0  0  0  0  0
  1 66  1  0  0  0  0
  1  2  1  0  0  0  0
  2 53  1  1  0  0  0
  2  3  1  0  0  0  0
  3 54  1  0  0  0  0
  4  3  2  0  0  0  0
  4  5  1  0  0  0  0
  5  6  1  0  0  0  0
  6  7  2  0  0  0  0
  6 55  1  0  0  0  0
  8  7  1  6  0  0  0
  8 56  1  0  0  0  0
  9  8  1  0  0  0  0
 10 29  1  0  0  0  0
 10  9  1  0  0  0  0
 11 10  1  0  0  0  0
 12 11  1  0  0  0  0
 12 62  1  0  0  0  0
 13 12  1  0  0  0  0
 14 33  1  0  0  0  0
 14 13  1  0  0  0  0
 15 16  1  0  0  0  0
 15 14  2  0  0  0  0
 16 60  1  0  0  0  0
 17 16  2  0  0  0  0
 17 49  1  0  0  0  0
 18 47  1  0  0  0  0
 18 17  1  0  0  0  0
 19 20  1  0  0  0  0
 19 36  1  0  0  0  0
 19 18  2  0  0  0  0
 20 37  2  0  0  0  0
 20 21  1  0  0  0  0
 21 46  1  0  0  0  0
 21 22  2  0  0  0  0
 22 39  1  0  0  0  0
 22 23  1  0  0  0  0
 23 24  2  0  0  0  0
 24 25  1  0  0  0  0
 24  4  1  0  0  0  0
 25 26  1  0  0  0  0
 26 27  1  0  0  0  0
 26  5  2  0  0  0  0
 27 28  2  0  0  0  0
 28  7  1  0  0  0  0
 29 28  1  0  0  0  0
 30 29  1  0  0  0  0
 31 32  1  0  0  0  0
 31 30  2  0  0  0  0
 32 11  1  0  0  0  0
 33 32  1  0  0  0  0
 34 44  1  0  0  0  0
 34 33  2  0  0  0  0
 35 34  1  0  0  0  0
 36 35  2  0  0  0  0
 36 15  1  0  0  0  0
 37 35  1  0  0  0  0
 37 38  1  0  0  0  0
 38 39  2  0  0  0  0
 38 43  1  0  0  0  0
 39 40  1  0  0  0  0
 40 41  1  0  0  0  0
 40 25  2  0  0  0  0
 41 42  2  0  0  0  0
 42 30  1  0  0  0  0
 42 27  1  0  0  0  0
 43 44  2  0  0  0  0
 43 41  1  0  0  0  0
 44 31  1  0  0  0  0
 45 23  1  0  0  0  0
 45  1  1  0  0  0  0
 45  2  1  0  0  0  0
 46 47  2  0  0  0  0
 46 45  1  0  0  0  0
 47 48  1  0  0  0  0
 48 49  2  0  0  0  0
 48 53  1  0  0  0  0
 49 50  1  0  0  0  0
 50 61  1  0  0  0  0
 50 59  1  0  0  0  0
 50 58  1  0  0  0  0
 51 57  1  0  0  0  0
 52 51  1  0  0  0  0
 52 54  1  0  0  0  0
 53 52  2  0  0  0  0
 54 55  2  0  0  0  0
 55 56  1  0  0  0  0
 57 56  1  0  0  0  0
 58 51  1  0  0  0  0
 60 13  1  0  0  0  0
 61 72  1  0  0  0  0
 61 51  1  0  0  0  0
 62 58  1  0  0  0  0
 62  9  1  0  0  0  0
 64 63  1  0  0  0  0
 64  1  1  0  0  0  0
 65 64  2  0  0  0  0
 66 68  1  0  0  0  0
 67 66  2  0  0  0  0
 69 70  1  0  0  0  0
 69 61  1  0  0  0  0
 71 69  2  0  0  0  0
 72 73  1  0  0  0  0
 74 72  2  0  0  0  0
M  END
>  <minimizedAffinity>
-11.270771

$$$$
