
 OpenBabel09182209113D

 74104  0  0  1  0  0  0  0  0999 V2000
   10.6830    7.1530   10.8700 C   0  0  0  0  0  0  0  0  0  0  0  0
   10.7630    6.0820    9.7620 C   0  0  1  0  0  0  0  0  0  0  0  0
   11.3820    6.4220    8.3720 C   0  0  0  0  0  0  0  0  0  0  0  0
   12.7350    6.5180    8.2540 C   0  0  0  0  0  0  0  0  0  0  0  0
   13.4330    6.0680    7.1260 C   0  0  0  0  0  0  0  0  0  0  0  0
   12.7990    5.3690    6.0500 C   0  0  0  0  0  0  0  0  0  0  0  0
   13.3790    4.1610    5.6600 C   0  0  0  0  0  0  0  0  0  0  0  0
   12.3010    3.2600    5.8590 C   0  0  1  0  0  3  0  0  0  0  0  0
   12.4200    2.6460    7.0890 C   0  0  2  0  0  3  0  0  0  0  0  0
   13.6210    1.9960    7.2380 C   0  0  2  0  0  3  0  0  0  0  0  0
   13.5420    1.0340    8.1480 C   0  0  2  0  0  3  0  0  0  0  0  0
   12.2720    0.9500    8.6630 C   0  0  1  0  0  3  0  0  0  0  0  0
   12.0310   -0.2770    9.2830 C   0  0  1  0  0  3  0  0  0  0  0  0
   13.0100   -0.5110   10.3040 C   0  0  0  0  0  0  0  0  0  0  0  0
   12.3450   -0.0920   11.4620 C   0  0  0  0  0  0  0  0  0  0  0  0
   10.9370    0.0640   11.1090 C   0  0  0  0  0  0  0  0  0  0  0  0
   10.4200    1.3060   11.4530 C   0  0  0  0  0  0  0  0  0  0  0  0
   11.0570    2.2770   12.3030 C   0  0  0  0  0  0  0  0  0  0  0  0
   12.3790    2.0550   12.7170 C   0  0  0  0  0  0  0  0  0  0  0  0
   13.3550    3.1520   12.7020 C   0  0  0  0  0  0  0  0  0  0  0  0
   13.0060    4.4520   12.3200 C   0  0  0  0  0  0  0  0  0  0  0  0
   13.8630    5.2450   11.5240 C   0  0  0  0  0  0  0  0  0  0  0  0
   13.1490    6.0940   10.6710 C   0  0  0  0  0  0  0  0  0  0  0  0
   13.5890    6.4280    9.3810 C   0  0  0  0  0  0  0  0  0  0  0  0
   14.7910    5.8920    8.9730 C   0  0  0  0  0  0  0  0  0  0  0  0
   14.6990    5.6500    7.6250 C   0  0  0  0  0  0  0  0  0  0  0  0
   15.3710    4.5150    7.1500 C   0  0  0  0  0  0  0  0  0  0  0  0
   14.6590    3.7700    6.2680 C   0  0  0  0  0  0  0  0  0  0  0  0
   14.8030    2.5380    6.8060 C   0  0  1  0  0  3  0  0  0  0  0  0
   15.7930    2.3950    7.7250 C   0  0  0  0  0  0  0  0  0  0  0  0
   15.7030    1.3500    8.7550 C   0  0  0  0  0  0  0  0  0  0  0  0
   14.6370    0.5090    8.7910 C   0  0  1  0  0  3  0  0  0  0  0  0
   14.3540   -0.0210   10.0030 C   0  0  0  0  0  0  0  0  0  0  0  0
   15.0520    0.8020   10.8280 C   0  0  0  0  0  0  0  0  0  0  0  0
   14.3410    1.3240   11.9330 C   0  0  0  0  0  0  0  0  0  0  0  0
   13.0220    0.9220   12.2260 C   0  0  0  0  0  0  0  0  0  0  0  0
   14.5490    2.6560   12.2190 C   0  0  0  0  0  0  0  0  0  0  0  0
   15.4380    3.4720   11.4400 C   0  0  0  0  0  0  0  0  0  0  0  0
   15.0850    4.7420   11.1020 C   0  0  0  0  0  0  0  0  0  0  0  0
   15.5540    5.0570    9.8600 C   0  0  0  0  0  0  0  0  0  0  0  0
   16.2070    3.9610    9.4050 C   0  0  0  0  0  0  0  0  0  0  0  0
   16.0850    3.6800    8.0240 C   0  0  0  0  0  0  0  0  0  0  0  0
   16.1260    2.9740   10.3840 C   0  0  0  0  0  0  0  0  0  0  0  0
   15.9050    1.6140   10.0680 C   0  0  0  0  0  0  0  0  0  0  0  0
   11.6630    6.0160   11.0480 C   0  0  1  0  0  0  0  0  0  0  0  0
   11.5610    4.9110   12.1840 C   0  0  0  0  0  0  0  0  0  0  0  0
   10.5950    3.7180   11.9420 C   0  0  0  0  0  0  0  0  0  0  0  0
   10.2800    3.5220   10.4970 C   0  0  0  0  0  0  0  0  0  0  0  0
   10.0310    2.0200   10.2900 C   0  0  0  0  0  0  0  0  0  0  0  0
    9.7350    1.4030    8.6960 C   0  0  1  0  0  0  0  0  0  0  0  0
    9.8640    2.8070    7.2590 C   0  0  1  0  0  0  0  0  0  0  0  0
   10.2390    4.4120    7.9630 C   0  0  0  0  0  0  0  0  0  0  0  0
   10.3240    4.6300    9.5190 C   0  0  0  0  0  0  0  0  0  0  0  0
   10.5660    5.6480    7.2380 C   0  0  0  0  0  0  0  0  0  0  0  0
   11.2060    5.1730    5.9300 C   0  0  0  0  0  0  0  0  0  0  0  0
   10.8620    3.4730    5.4490 C   0  0  2  0  0  3  0  0  0  0  0  0
   10.1130    2.3290    5.9630 C   0  0  0  0  0  2  0  0  0  0  0  0
    9.8660    1.6130    7.5320 C   0  0  1  0  0  3  0  0  0  0  0  0
    9.8120    0.0870    8.1890 C   0  0  0  0  0  1  0  0  0  0  0  0
   10.6360   -0.5310    9.6210 C   0  0  0  0  0  2  0  0  0  0  0  0
    8.9570    2.9830    8.7510 C   0  0  0  0  0  0  0  0  0  0  0  0
   11.1620    2.5240    8.5100 C   0  0  2  0  0  3  0  0  0  0  0  0
    9.6260    7.6940   12.9370 O   0  0  0  0  0  1  0  0  0  0  0  0
    9.4970    7.2280   11.7450 C   0  0  0  0  0  0  0  0  0  0  0  0
    8.3450    6.9110   11.2870 O   0  0  0  0  0  0  0  0  0  0  0  0
   11.3260    8.4850   10.6840 C   0  0  0  0  0  0  0  0  0  0  0  0
   12.2540    8.8930   11.4750 O   0  0  0  0  0  1  0  0  0  0  0  0
   10.8780    9.2690    9.7610 O   0  0  0  0  0  0  0  0  0  0  0  0
    7.7260    2.1850    9.6840 C   0  0  0  0  0  0  0  0  0  0  0  0
    7.1750    1.1270    9.2040 O   0  0  0  0  0  0  0  0  0  0  0  0
    7.2940    2.6800   10.8020 O   0  0  0  0  0  1  0  0  0  0  0  0
    7.7930    3.7040    7.6860 C   0  0  0  0  0  0  0  0  0  0  0  0
    7.5040    3.1480    6.5670 O   0  0  0  0  0  0  0  0  0  0  0  0
    7.1680    4.7750    8.0600 O   0  0  0  0  0  1  0  0  0  0  0  0
  1 45  1  0  0  0  0
  1 64  1  0  0  0  0
  2  3  1  6  0  0  0
  2  1  1  0  0  0  0
  2 45  1  0  0  0  0
  4  3  1  0  0  0  0
  4 24  1  0  0  0  0
  5 26  1  0  0  0  0
  5  4  2  0  0  0  0
  6  5  1  0  0  0  0
  7  6  1  0  0  0  0
  7 28  2  0  0  0  0
  8  7  1  1  0  0  0
  8  9  1  0  0  0  0
  9 10  1  0  0  0  0
  9 62  1  0  0  0  0
 10 11  1  0  0  0  0
 11 12  1  0  0  0  0
 11 32  1  0  0  0  0
 12 13  1  0  0  0  0
 13 60  1  0  0  0  0
 13 14  1  0  0  0  0
 14 15  1  0  0  0  0
 15 36  1  0  0  0  0
 16 17  1  0  0  0  0
 16 15  2  0  0  0  0
 17 18  1  0  0  0  0
 18 19  2  0  0  0  0
 20 19  1  0  0  0  0
 21 20  1  0  0  0  0
 22 21  1  0  0  0  0
 23 45  1  0  0  0  0
 23 22  2  0  0  0  0
 24 23  1  0  0  0  0
 25 24  2  0  0  0  0
 25 40  1  0  0  0  0
 26 25  1  0  0  0  0
 27 26  2  0  0  0  0
 27 42  1  0  0  0  0
 28 29  1  0  0  0  0
 28 27  1  0  0  0  0
 29 10  1  0  0  0  0
 29 30  1  0  0  0  0
 30 42  1  0  0  0  0
 30 31  2  0  0  0  0
 31 32  1  0  0  0  0
 31 44  1  0  0  0  0
 32 33  1  0  0  0  0
 33 14  2  0  0  0  0
 33 34  1  0  0  0  0
 34 35  1  0  0  0  0
 35 37  1  0  0  0  0
 35 36  2  0  0  0  0
 36 19  1  0  0  0  0
 37 20  2  0  0  0  0
 38 37  1  0  0  0  0
 39 38  1  0  0  0  0
 39 22  1  0  0  0  0
 40 39  2  0  0  0  0
 41 40  1  0  0  0  0
 41 43  1  0  0  0  0
 42 41  2  0  0  0  0
 43 38  2  0  0  0  0
 44 43  1  0  0  0  0
 44 34  2  0  0  0  0
 45 46  1  0  0  0  0
 46 21  2  0  0  0  0
 47 46  1  0  0  0  0
 47 18  1  0  0  0  0
 48 47  2  0  0  0  0
 49 48  1  0  0  0  0
 49 17  2  0  0  0  0
 50 61  1  0  0  0  0
 50 49  1  0  0  0  0
 51 58  1  0  0  0  0
 51 52  1  0  0  0  0
 51 61  1  0  0  0  0
 52 53  2  0  0  0  0
 53  2  1  0  0  0  0
 53 48  1  0  0  0  0
 54 52  1  0  0  0  0
 54  3  2  0  0  0  0
 55  6  2  0  0  0  0
 55 54  1  0  0  0  0
 56  8  1  0  0  0  0
 56 55  1  0  0  0  0
 56 57  1  0  0  0  0
 57 51  1  0  0  0  0
 58 62  1  0  0  0  0
 58 50  1  0  0  0  0
 59 50  1  0  0  0  0
 60 16  1  0  0  0  0
 61 69  1  0  0  0  0
 62 12  1  0  0  0  0
 64 63  1  0  0  0  0
 65 64  2  0  0  0  0
 66  1  1  0  0  0  0
 66 67  1  0  0  0  0
 68 66  2  0  0  0  0
 69 71  1  0  0  0  0
 70 69  2  0  0  0  0
 72 74  1  0  0  0  0
 72 61  1  0  0  0  0
 73 72  2  0  0  0  0
M  END
>  <minimizedAffinity>
-11.3102388

$$$$
