
 OpenBabel09182209113D

 74104  0  0  1  0  0  0  0  0999 V2000
   11.6790    3.2990    5.6800 C   0  0  0  0  0  0  0  0  0  0  0  0
   11.7380    2.5000    6.9980 C   0  0  1  0  0  0  0  0  0  0  0  0
   13.1040    2.0260    7.5790 C   0  0  0  0  0  0  0  0  0  0  0  0
   13.9130    2.9310    8.1960 C   0  0  0  0  0  0  0  0  0  0  0  0
   14.6740    2.6210    9.3300 C   0  0  0  0  0  0  0  0  0  0  0  0
   14.5840    1.3610   10.0040 C   0  0  0  0  0  0  0  0  0  0  0  0
   14.3700    1.4020   11.3830 C   0  0  0  0  0  0  0  0  0  0  0  0
   13.1570    0.6760   11.4950 C   0  0  1  0  0  3  0  0  0  0  0  0
   12.0880    1.5480   11.5440 C   0  0  2  0  0  3  0  0  0  0  0  0
   12.1980    2.4580   12.5680 C   0  0  2  0  0  3  0  0  0  0  0  0
   11.0140    2.9350   12.9220 C   0  0  2  0  0  3  0  0  0  0  0  0
   10.0120    2.3640   12.1770 C   0  0  1  0  0  3  0  0  0  0  0  0
    8.7600    2.5000   12.7770 C   0  0  1  0  0  3  0  0  0  0  0  0
    8.4820    3.8860   13.0220 C   0  0  0  0  0  0  0  0  0  0  0  0
    7.7000    4.2370   11.9160 C   0  0  0  0  0  0  0  0  0  0  0  0
    7.3080    2.9930   11.2620 C   0  0  0  0  0  0  0  0  0  0  0  0
    7.6010    2.9700    9.9060 C   0  0  0  0  0  0  0  0  0  0  0  0
    7.9970    4.1020    9.1100 C   0  0  0  0  0  0  0  0  0  0  0  0
    8.2690    5.3200    9.7510 C   0  0  0  0  0  0  0  0  0  0  0  0
    9.4410    6.1160    9.3620 C   0  0  0  0  0  0  0  0  0  0  0  0
   10.2980    5.7220    8.3290 C   0  0  0  0  0  0  0  0  0  0  0  0
   11.7000    5.8700    8.4320 C   0  0  0  0  0  0  0  0  0  0  0  0
   12.3840    4.8480    7.7660 C   0  0  0  0  0  0  0  0  0  0  0  0
   13.5970    4.3120    8.2260 C   0  0  0  0  0  0  0  0  0  0  0  0
   14.1190    4.8520    9.3820 C   0  0  0  0  0  0  0  0  0  0  0  0
   14.7470    3.8390   10.0640 C   0  0  0  0  0  0  0  0  0  0  0  0
   14.6750    3.8940   11.4630 C   0  0  0  0  0  0  0  0  0  0  0  0
   14.3990    2.7070   12.0580 C   0  0  0  0  0  0  0  0  0  0  0  0
   13.3870    3.0660   12.8780 C   0  0  1  0  0  3  0  0  0  0  0  0
   13.2330    4.3970   13.0970 C   0  0  0  0  0  0  0  0  0  0  0  0
   11.9180    4.9420   13.4640 C   0  0  0  0  0  0  0  0  0  0  0  0
   10.8460    4.1190   13.6000 C   0  0  1  0  0  3  0  0  0  0  0  0
    9.6390    4.6960   13.3990 C   0  0  0  0  0  0  0  0  0  0  0  0
    9.9910    5.8410   12.7590 C   0  0  0  0  0  0  0  0  0  0  0  0
    9.2810    6.1330   11.5710 C   0  0  0  0  0  0  0  0  0  0  0  0
    8.1960    5.3430   11.1400 C   0  0  0  0  0  0  0  0  0  0  0  0
   10.0290    6.6020   10.5130 C   0  0  0  0  0  0  0  0  0  0  0  0
   11.4510    6.7860   10.6070 C   0  0  0  0  0  0  0  0  0  0  0  0
   12.2590    6.4170    9.5780 C   0  0  0  0  0  0  0  0  0  0  0  0
   13.4460    5.9340   10.0480 C   0  0  0  0  0  0  0  0  0  0  0  0
   13.3780    5.9930   11.3990 C   0  0  0  0  0  0  0  0  0  0  0  0
   13.9860    4.9320   12.1110 C   0  0  0  0  0  0  0  0  0  0  0  0
   12.1330    6.5130   11.7450 C   0  0  0  0  0  0  0  0  0  0  0  0
   11.3810    6.0120   12.8320 C   0  0  0  0  0  0  0  0  0  0  0  0
   11.3630    4.0250    6.9680 C   0  0  1  0  0  0  0  0  0  0  0  0
    9.9390    4.6270    7.3340 C   0  0  0  0  0  0  0  0  0  0  0  0
    8.8710    3.6530    7.9040 C   0  0  0  0  0  0  0  0  0  0  0  0
    9.4760    2.4180    8.4820 C   0  0  0  0  0  0  0  0  0  0  0  0
    8.5550    1.9580    9.6220 C   0  0  0  0  0  0  0  0  0  0  0  0
    9.0000    0.5950   10.5980 C   0  0  1  0  0  0  0  0  0  0  0  0
   10.8040   -0.1680   10.1300 C   0  0  1  0  0  0  0  0  0  0  0  0
   11.5470    0.7340    8.7720 C   0  0  0  0  0  0  0  0  0  0  0  0
   10.7750    1.8820    8.0230 C   0  0  0  0  0  0  0  0  0  0  0  0
   12.9130    0.5870    8.2470 C   0  0  0  0  0  0  0  0  0  0  0  0
   13.7400    0.1100    9.4450 C   0  0  0  0  0  0  0  0  0  0  0  0
   12.8170   -0.6250   10.8040 C   0  0  2  0  0  3  0  0  0  0  0  0
   11.4260   -0.9190   11.1400 C   0  0  0  0  0  2  0  0  0  0  0  0
    9.9050   -0.0890   10.9590 C   0  0  1  0  0  3  0  0  0  0  0  0
    8.5410    0.1810   11.8680 C   0  0  0  0  0  1  0  0  0  0  0  0
    7.6990    1.7010   12.1760 C   0  0  0  0  0  2  0  0  0  0  0  0
    9.5470    0.2160    8.9670 C   0  0  0  0  0  0  0  0  0  0  0  0
   10.5170    1.6010   10.4750 C   0  0  2  0  0  3  0  0  0  0  0  0
    9.9290    1.9520    4.7820 O   0  0  0  0  0  1  0  0  0  0  0  0
   10.5980    3.0490    4.7070 C   0  0  0  0  0  0  0  0  0  0  0  0
   10.2820    3.9510    3.8570 O   0  0  0  0  0  0  0  0  0  0  0  0
   12.9330    3.7590    5.0160 C   0  0  0  0  0  0  0  0  0  0  0  0
   13.1640    5.0100    4.8240 O   0  0  0  0  0  1  0  0  0  0  0  0
   13.7530    2.8760    4.5560 O   0  0  0  0  0  0  0  0  0  0  0  0
    7.8730   -0.1080    8.6340 C   0  0  0  0  0  0  0  0  0  0  0  0
    7.2370   -0.9260    9.3960 O   0  0  0  0  0  1  0  0  0  0  0  0
    7.2800    0.3850    7.5920 O   0  0  0  0  0  0  0  0  0  0  0  0
   10.0580   -1.2880    8.2700 C   0  0  0  0  0  0  0  0  0  0  0  0
    9.9820   -2.3760    8.9440 O   0  0  0  0  0  1  0  0  0  0  0  0
   10.4550   -1.3140    7.0380 O   0  0  0  0  0  0  0  0  0  0  0  0
  1 45  1  0  0  0  0
  1  2  1  0  0  0  0
  2  3  1  1  0  0  0
  2 53  1  0  0  0  0
  3  4  2  0  0  0  0
  3 54  1  0  0  0  0
  4 24  1  0  0  0  0
  4  5  1  0  0  0  0
  5  6  2  0  0  0  0
  5 26  1  0  0  0  0
  6  7  1  0  0  0  0
  7 28  2  0  0  0  0
  8  7  1  6  0  0  0
  8  9  1  0  0  0  0
  9 10  1  0  0  0  0
 10 29  1  0  0  0  0
 10 11  1  0  0  0  0
 11 32  1  0  0  0  0
 12 13  1  0  0  0  0
 12 11  1  0  0  0  0
 13 14  1  0  0  0  0
 14 33  1  0  0  0  0
 15 14  2  0  0  0  0
 16 15  1  0  0  0  0
 16 60  1  0  0  0  0
 17 16  2  0  0  0  0
 18 19  1  0  0  0  0
 18 17  1  0  0  0  0
 19 36  1  0  0  0  0
 20 19  2  0  0  0  0
 20 37  1  0  0  0  0
 21 22  1  0  0  0  0
 21 20  1  0  0  0  0
 22 39  1  0  0  0  0
 23 24  1  0  0  0  0
 23 22  2  0  0  0  0
 24 25  2  0  0  0  0
 25 40  1  0  0  0  0
 25 26  1  0  0  0  0
 26 27  2  0  0  0  0
 27 28  1  0  0  0  0
 27 42  1  0  0  0  0
 28 29  1  0  0  0  0
 29 30  1  0  0  0  0
 30 31  1  0  0  0  0
 31 32  1  0  0  0  0
 33 32  1  0  0  0  0
 34 44  1  0  0  0  0
 34 33  2  0  0  0  0
 35 34  1  0  0  0  0
 36 35  2  0  0  0  0
 36 15  1  0  0  0  0
 37 38  2  0  0  0  0
 37 35  1  0  0  0  0
 38 43  1  0  0  0  0
 39 40  2  0  0  0  0
 39 38  1  0  0  0  0
 40 41  1  0  0  0  0
 41 43  2  0  0  0  0
 41 42  1  0  0  0  0
 42 30  2  0  0  0  0
 43 44  1  0  0  0  0
 44 31  2  0  0  0  0
 45  2  1  0  0  0  0
 45 46  1  0  0  0  0
 45 23  1  0  0  0  0
 46 47  1  0  0  0  0
 46 21  2  0  0  0  0
 47 48  1  0  0  0  0
 47 18  2  0  0  0  0
 48 49  2  0  0  0  0
 49 17  1  0  0  0  0
 49 50  1  0  0  0  0
 50 58  1  0  0  0  0
 50 59  1  0  0  0  0
 51 58  1  0  0  0  0
 51 57  1  0  0  0  0
 52 51  1  0  0  0  0
 53 48  1  0  0  0  0
 53 52  2  0  0  0  0
 54 52  1  0  0  0  0
 54 55  2  0  0  0  0
 55  6  1  0  0  0  0
 55 56  1  0  0  0  0
 56 57  1  0  0  0  0
 56  8  1  0  0  0  0
 60 13  1  0  0  0  0
 61 51  1  0  0  0  0
 61 50  1  0  0  0  0
 62 58  1  0  0  0  0
 62  9  1  0  0  0  0
 62 12  1  0  0  0  0
 64 63  1  0  0  0  0
 64  1  1  0  0  0  0
 65 64  2  0  0  0  0
 66  1  1  0  0  0  0
 67 66  1  0  0  0  0
 68 66  2  0  0  0  0
 69 61  1  0  0  0  0
 69 70  1  0  0  0  0
 71 69  2  0  0  0  0
 72 73  1  0  0  0  0
 72 61  1  0  0  0  0
 74 72  2  0  0  0  0
M  END
>  <minimizedAffinity>
-10.5939407

$$$$
