
 OpenBabel09122218383D

 36 40  0  0  1  0  0  0  0  0999 V2000
    3.6290   -8.8350    2.3000 C   0  0  0  0  0  0  0  0  0  0  0  0
    3.5600   -9.6000    1.1940 C   0  0  0  0  0  0  0  0  0  0  0  0
    2.7970  -10.8610    1.1780 C   0  0  0  0  0  0  0  0  0  0  0  0
    2.8260  -11.7720    0.1120 C   0  0  0  0  0  3  0  0  0  0  0  0
    2.0540  -12.9300    0.1590 C   0  0  0  0  0  3  0  0  0  0  0  0
    1.2810  -13.1530    1.2780 C   0  0  0  0  0  3  0  0  0  0  0  0
    1.2520  -12.3140    2.3320 N   0  0  0  0  0  0  0  0  0  0  0  0
    2.0100  -11.1950    2.2860 C   0  0  0  0  0  0  0  0  0  0  0  0
    2.0420  -10.3590    3.4280 N   0  0  0  0  0  0  0  0  0  0  0  0
    2.8570   -9.2560    3.5100 C   0  0  0  0  0  0  0  0  0  0  0  0
    2.9760   -8.5560    4.5190 O   0  0  0  0  0  0  0  0  0  0  0  0
    8.0400   -4.1140    1.4440 C   0  0  0  0  0  0  0  0  0  0  0  0
    8.2770   -5.2450    0.6650 C   0  0  0  0  0  3  0  0  0  0  0  0
    7.4150   -6.3500    0.7420 C   0  0  0  0  0  3  0  0  0  0  0  0
    6.3060   -6.3440    1.5960 C   0  0  0  0  0  0  0  0  0  0  0  0
    6.0960   -5.2130    2.3590 C   0  0  0  0  0  0  0  0  0  0  0  0
    6.9410   -4.0990    2.2980 C   0  0  0  0  0  3  0  0  0  0  0  0
    4.7220   -5.1960    3.4270 S   0  0  0  0  0  0  0  0  0  0  0  0
    5.2660   -5.1430    4.7650 O   0  0  0  0  0  0  0  0  0  0  0  0
    3.8540   -4.1490    2.9360 O   0  0  0  0  0  0  0  0  0  0  0  0
    4.0150   -6.6050    3.2070 N   0  0  0  0  0  0  0  0  0  0  0  0
    4.4280   -7.5380    2.3910 C   0  0  2  0  0  3  0  0  0  0  0  0
    5.5040   -7.4370    1.6270 N   0  0  0  0  0  0  0  0  0  0  0  0
    3.1790   -6.7780    3.7610 H   0  0  0  0  0  0  0  0  0  0  0  0
    5.7210   -8.2440    1.0340 H   0  0  0  0  0  0  0  0  0  0  0  0
    8.7260   -2.1680    2.6360 C   0  0  0  0  0  1  0  0  0  0  0  0
    8.7910   -2.9770    1.4660 O   0  0  0  0  0  0  0  0  0  0  0  0
    4.1840   -9.1910    0.0210 O   0  0  0  0  0  0  0  0  0  0  0  0
    3.7550   -9.6340   -0.7390 H   0  0  0  0  0  0  0  0  0  0  0  0
    1.1660  -10.6810    4.5570 C   0  0  0  0  0  2  0  0  0  0  0  0
   -0.2060  -10.0610    4.3910 C   0  0  0  0  0  0  0  0  0  0  0  0
   -0.3770   -8.6710    4.4710 C   0  0  0  0  0  3  0  0  0  0  0  0
   -1.6380   -8.1000    4.2920 C   0  0  0  0  0  3  0  0  0  0  0  0
   -2.7400   -8.9110    4.0290 C   0  0  0  0  0  3  0  0  0  0  0  0
   -2.5830  -10.2920    3.9450 C   0  0  0  0  0  3  0  0  0  0  0  0
   -1.3240  -10.8650    4.1240 C   0  0  0  0  0  3  0  0  0  0  0  0
  1 10  1  0  0  0  0
  2  1  2  0  0  0  0
  3  2  1  0  0  0  0
  3  8  1  0  0  0  0
  4  5  1  0  0  0  0
  4  3  2  0  0  0  0
  5  6  2  0  0  0  0
  6  7  1  0  0  0  0
  8  7  2  0  0  0  0
  8  9  1  0  0  0  0
  9 10  1  0  0  0  0
  9 30  1  0  0  0  0
 10 11  2  0  0  0  0
 12 27  1  0  0  0  0
 12 17  1  0  0  0  0
 13 14  1  0  0  0  0
 13 12  2  0  0  0  0
 14 15  2  0  0  0  0
 15 23  1  0  0  0  0
 15 16  1  0  0  0  0
 16 18  1  0  0  0  0
 17 16  2  0  0  0  0
 18 19  2  0  0  0  0
 20 18  2  0  0  0  0
 21 18  1  0  0  0  0
 21 24  1  0  0  0  0
 22  1  1  6  0  0  0
 22 21  1  0  0  0  0
 23 22  1  0  0  0  0
 25 23  1  0  0  0  0
 27 26  1  0  0  0  0
 28  2  1  0  0  0  0
 29 28  1  0  0  0  0
 31 32  1  0  0  0  0
 31 30  1  0  0  0  0
 33 32  2  0  0  0  0
 34 33  1  0  0  0  0
 35 34  2  0  0  0  0
 35 36  1  0  0  0  0
 36 31  2  0  0  0  0
M  END
>  <minimizedAffinity>
-7.82362938

$$$$

 OpenBabel09122218383D

 36 40  0  0  1  0  0  0  0  0999 V2000
    3.8220   -9.4140    2.1340 C   0  0  0  0  0  0  0  0  0  0  0  0
    3.6290  -10.2760    1.1180 C   0  0  0  0  0  0  0  0  0  0  0  0
    2.7490  -11.4500    1.2630 C   0  0  0  0  0  0  0  0  0  0  0  0
    2.6410  -12.4630    0.2990 C   0  0  0  0  0  3  0  0  0  0  0  0
    1.7650  -13.5280    0.4960 C   0  0  0  0  0  3  0  0  0  0  0  0
    1.0270  -13.5570    1.6590 C   0  0  0  0  0  3  0  0  0  0  0  0
    1.1270  -12.6160    2.6190 N   0  0  0  0  0  0  0  0  0  0  0  0
    1.9860  -11.5890    2.4280 C   0  0  0  0  0  0  0  0  0  0  0  0
    2.1510  -10.6490    3.4730 N   0  0  0  0  0  0  0  0  0  0  0  0
    3.0700   -9.6300    3.4080 C   0  0  0  0  0  0  0  0  0  0  0  0
    3.3020   -8.8470    4.3340 O   0  0  0  0  0  0  0  0  0  0  0  0
    6.6630   -3.6270    3.0930 C   0  0  0  0  0  0  0  0  0  0  0  0
    5.5360   -3.8320    3.8870 C   0  0  0  0  0  3  0  0  0  0  0  0
    4.8130   -5.0310    3.7910 C   0  0  0  0  0  3  0  0  0  0  0  0
    5.2000   -6.0410    2.9030 C   0  0  0  0  0  0  0  0  0  0  0  0
    6.3180   -5.8120    2.1260 C   0  0  0  0  0  0  0  0  0  0  0  0
    7.0550   -4.6250    2.2050 C   0  0  0  0  0  3  0  0  0  0  0  0
    6.8080   -7.0590    1.0160 S   0  0  0  0  0  0  0  0  0  0  0  0
    6.6390   -6.4980   -0.3050 O   0  0  0  0  0  0  0  0  0  0  0  0
    8.1050   -7.5070    1.4730 O   0  0  0  0  0  0  0  0  0  0  0  0
    5.7500   -8.2300    1.2240 N   0  0  0  0  0  0  0  0  0  0  0  0
    4.7450   -8.2000    2.0580 C   0  0  2  0  0  3  0  0  0  0  0  0
    4.4670   -7.1810    2.8540 N   0  0  0  0  0  0  0  0  0  0  0  0
    5.8770   -9.0580    0.6450 H   0  0  0  0  0  0  0  0  0  0  0  0
    3.6460   -7.2830    3.4600 H   0  0  0  0  0  0  0  0  0  0  0  0
    8.6740   -2.5840    2.3550 C   0  0  0  0  0  1  0  0  0  0  0  0
    7.4550   -2.5180    3.0870 O   0  0  0  0  0  0  0  0  0  0  0  0
    4.2340  -10.0530   -0.1130 O   0  0  0  0  0  0  0  0  0  0  0  0
    3.7300  -10.5260   -0.8060 H   0  0  0  0  0  0  0  0  0  0  0  0
    1.3010  -10.7660    4.6610 C   0  0  0  0  0  2  0  0  0  0  0  0
   -0.0100  -10.0290    4.4810 C   0  0  0  0  0  0  0  0  0  0  0  0
   -1.1820  -10.7250    4.1490 C   0  0  0  0  0  3  0  0  0  0  0  0
   -2.3940  -10.0470    4.0080 C   0  0  0  0  0  3  0  0  0  0  0  0
   -2.4490   -8.6680    4.1990 C   0  0  0  0  0  3  0  0  0  0  0  0
   -1.2920   -7.9650    4.5310 C   0  0  0  0  0  3  0  0  0  0  0  0
   -0.0800   -8.6410    4.6720 C   0  0  0  0  0  3  0  0  0  0  0  0
  1 10  1  0  0  0  0
  2  3  1  0  0  0  0
  2  1  2  0  0  0  0
  3  8  1  0  0  0  0
  4  5  1  0  0  0  0
  4  3  2  0  0  0  0
  5  6  2  0  0  0  0
  6  7  1  0  0  0  0
  8  7  2  0  0  0  0
  8  9  1  0  0  0  0
  9 30  1  0  0  0  0
 10  9  1  0  0  0  0
 10 11  2  0  0  0  0
 12 13  1  0  0  0  0
 14 13  2  0  0  0  0
 15 14  1  0  0  0  0
 16 17  1  0  0  0  0
 16 15  2  0  0  0  0
 17 12  2  0  0  0  0
 18 21  1  0  0  0  0
 18 20  2  0  0  0  0
 18 16  1  0  0  0  0
 19 18  2  0  0  0  0
 21 22  1  0  0  0  0
 22  1  1  1  0  0  0
 22 23  1  0  0  0  0
 23 15  1  0  0  0  0
 23 25  1  0  0  0  0
 24 21  1  0  0  0  0
 26 27  1  0  0  0  0
 27 12  1  0  0  0  0
 28  2  1  0  0  0  0
 29 28  1  0  0  0  0
 31 30  1  0  0  0  0
 31 36  1  0  0  0  0
 32 31  2  0  0  0  0
 33 32  1  0  0  0  0
 33 34  2  0  0  0  0
 34 35  1  0  0  0  0
 35 36  2  0  0  0  0
M  END
>  <minimizedAffinity>
-6.37425613

$$$$
