
 OpenBabel09122222393D

 36 40  0  0  1  0  0  0  0  0999 V2000
    3.8220   -9.4140    2.1340 C   0  0  0  0  0  0  0  0  0  0  0  0
    3.6290  -10.2760    1.1180 C   0  0  0  0  0  0  0  0  0  0  0  0
    2.7490  -11.4500    1.2630 C   0  0  0  0  0  0  0  0  0  0  0  0
    2.6410  -12.4630    0.2990 C   0  0  0  0  0  3  0  0  0  0  0  0
    1.7650  -13.5280    0.4960 C   0  0  0  0  0  3  0  0  0  0  0  0
    1.0270  -13.5570    1.6590 C   0  0  0  0  0  3  0  0  0  0  0  0
    1.1270  -12.6160    2.6190 N   0  0  0  0  0  0  0  0  0  0  0  0
    1.9860  -11.5890    2.4280 C   0  0  0  0  0  0  0  0  0  0  0  0
    2.1510  -10.6490    3.4730 N   0  0  0  0  0  0  0  0  0  0  0  0
    3.0700   -9.6300    3.4080 C   0  0  0  0  0  0  0  0  0  0  0  0
    3.3020   -8.8470    4.3340 O   0  0  0  0  0  0  0  0  0  0  0  0
    6.6630   -3.6270    3.0930 C   0  0  0  0  0  0  0  0  0  0  0  0
    5.5360   -3.8320    3.8870 C   0  0  0  0  0  3  0  0  0  0  0  0
    4.8130   -5.0310    3.7910 C   0  0  0  0  0  3  0  0  0  0  0  0
    5.2000   -6.0410    2.9030 C   0  0  0  0  0  0  0  0  0  0  0  0
    6.3180   -5.8120    2.1260 C   0  0  0  0  0  0  0  0  0  0  0  0
    7.0550   -4.6250    2.2050 C   0  0  0  0  0  3  0  0  0  0  0  0
    6.8080   -7.0590    1.0160 S   0  0  0  0  0  0  0  0  0  0  0  0
    6.6390   -6.4980   -0.3050 O   0  0  0  0  0  0  0  0  0  0  0  0
    8.1050   -7.5070    1.4730 O   0  0  0  0  0  0  0  0  0  0  0  0
    5.7500   -8.2300    1.2240 N   0  0  0  0  0  0  0  0  0  0  0  0
    4.7450   -8.2000    2.0580 C   0  0  2  0  0  3  0  0  0  0  0  0
    4.4670   -7.1810    2.8540 N   0  0  0  0  0  0  0  0  0  0  0  0
    5.8770   -9.0580    0.6450 H   0  0  0  0  0  0  0  0  0  0  0  0
    3.6460   -7.2830    3.4600 H   0  0  0  0  0  0  0  0  0  0  0  0
    8.6740   -2.5840    2.3550 C   0  0  0  0  0  1  0  0  0  0  0  0
    7.4550   -2.5180    3.0870 O   0  0  0  0  0  0  0  0  0  0  0  0
    4.2340  -10.0530   -0.1130 O   0  0  0  0  0  0  0  0  0  0  0  0
    3.7300  -10.5260   -0.8060 H   0  0  0  0  0  0  0  0  0  0  0  0
    1.3010  -10.7660    4.6610 C   0  0  0  0  0  2  0  0  0  0  0  0
   -0.0100  -10.0290    4.4810 C   0  0  0  0  0  0  0  0  0  0  0  0
   -1.1820  -10.7250    4.1490 C   0  0  0  0  0  3  0  0  0  0  0  0
   -2.3940  -10.0470    4.0080 C   0  0  0  0  0  3  0  0  0  0  0  0
   -2.4490   -8.6680    4.1990 C   0  0  0  0  0  3  0  0  0  0  0  0
   -1.2920   -7.9650    4.5310 C   0  0  0  0  0  3  0  0  0  0  0  0
   -0.0800   -8.6410    4.6720 C   0  0  0  0  0  3  0  0  0  0  0  0
  1 10  1  0  0  0  0
  2  3  1  0  0  0  0
  2  1  2  0  0  0  0
  3  8  1  0  0  0  0
  4  5  1  0  0  0  0
  4  3  2  0  0  0  0
  5  6  2  0  0  0  0
  6  7  1  0  0  0  0
  8  7  2  0  0  0  0
  8  9  1  0  0  0  0
  9 30  1  0  0  0  0
 10  9  1  0  0  0  0
 10 11  2  0  0  0  0
 12 13  1  0  0  0  0
 14 13  2  0  0  0  0
 15 14  1  0  0  0  0
 16 17  1  0  0  0  0
 16 15  2  0  0  0  0
 17 12  2  0  0  0  0
 18 21  1  0  0  0  0
 18 20  2  0  0  0  0
 18 16  1  0  0  0  0
 19 18  2  0  0  0  0
 21 22  1  0  0  0  0
 22  1  1  1  0  0  0
 22 23  1  0  0  0  0
 23 15  1  0  0  0  0
 23 25  1  0  0  0  0
 24 21  1  0  0  0  0
 26 27  1  0  0  0  0
 27 12  1  0  0  0  0
 28  2  1  0  0  0  0
 29 28  1  0  0  0  0
 31 30  1  0  0  0  0
 31 36  1  0  0  0  0
 32 31  2  0  0  0  0
 33 32  1  0  0  0  0
 33 34  2  0  0  0  0
 34 35  1  0  0  0  0
 35 36  2  0  0  0  0
M  END
>  <minimizedAffinity>
-6.37425613

$$$$
