
 OpenBabel09122218303D

 32 36  0  0  0  0  0  0  0  0999 V2000
    0.6170  -10.6150    2.9360 C   0  0  0  0  0  0  0  0  0  0  0  0
   -0.4470  -11.0070    3.6620 N   0  0  0  0  0  0  0  0  0  0  0  0
   -0.7570  -10.2410    4.7090 C   0  0  0  0  0  3  0  0  0  0  0  0
   -0.1260   -9.1270    5.0800 N   0  0  0  0  0  0  0  0  0  0  0  0
    0.9150   -8.7520    4.3440 C   0  0  0  0  0  0  0  0  0  0  0  0
    1.5330   -7.6180    4.6810 N   0  0  0  0  0  0  0  0  0  0  0  0
    2.6020   -7.1940    3.9420 C   0  0  0  0  0  0  0  0  0  0  0  0
    3.0940   -7.9610    2.8790 C   0  0  0  0  0  0  0  0  0  0  0  0
    2.4580   -9.1010    2.5090 N   0  0  0  0  0  0  0  0  0  0  0  0
    1.3690   -9.4780    3.2380 C   0  0  0  0  0  0  0  0  0  0  0  0
    3.1140   -5.8700    4.3440 C   0  0  0  0  0  0  0  0  0  0  0  0
    4.4720   -5.6620    4.6500 C   0  0  0  0  0  3  0  0  0  0  0  0
    4.9450   -4.4010    5.0240 C   0  0  0  0  0  3  0  0  0  0  0  0
    4.0700   -3.3200    5.0860 C   0  0  0  0  0  3  0  0  0  0  0  0
    2.7260   -3.4950    4.7690 C   0  0  0  0  0  3  0  0  0  0  0  0
    2.2550   -4.7580    4.3970 C   0  0  0  0  0  3  0  0  0  0  0  0
    4.3100   -7.6770    2.0910 C   0  0  0  0  0  0  0  0  0  0  0  0
    4.3190   -6.6300    1.1510 C   0  0  0  0  0  3  0  0  0  0  0  0
    5.4530   -6.3550    0.3820 C   0  0  0  0  0  3  0  0  0  0  0  0
    6.6000   -7.1280    0.5330 C   0  0  0  0  0  3  0  0  0  0  0  0
    6.6110   -8.1790    1.4450 C   0  0  0  0  0  3  0  0  0  0  0  0
    5.4750   -8.4540    2.2110 C   0  0  0  0  0  3  0  0  0  0  0  0
    0.9350  -11.3250    1.7850 N   0  0  0  0  0  0  0  0  0  0  0  0
    1.0830  -10.7770    0.9450 H   0  0  0  0  0  0  0  0  0  0  0  0
    1.3620  -12.6990    1.8210 C   0  0  0  0  0  2  0  0  0  0  0  0
    6.1890  -12.8600    5.0850 C   0  0  0  0  0  1  0  0  0  0  0  0
    4.9460  -12.8690    4.2450 C   0  0  0  0  0  0  0  0  0  0  0  0
    5.0310  -12.7350    2.8550 C   0  0  0  0  0  3  0  0  0  0  0  0
    3.8720  -12.7010    2.0780 C   0  0  0  0  0  3  0  0  0  0  0  0
    2.6060  -12.7900    2.6750 C   0  0  0  0  0  0  0  0  0  0  0  0
    2.5230  -12.9040    4.0680 C   0  0  0  0  0  3  0  0  0  0  0  0
    3.6840  -12.9410    4.8450 C   0  0  0  0  0  3  0  0  0  0  0  0
  1 10  2  0  0  0  0
  1  2  1  0  0  0  0
  2  3  2  0  0  0  0
  3  4  1  0  0  0  0
  5  6  1  0  0  0  0
  5  4  2  0  0  0  0
  7 11  1  0  0  0  0
  7  6  2  0  0  0  0
  8  7  1  0  0  0  0
  9  8  2  0  0  0  0
  9 10  1  0  0  0  0
 10  5  1  0  0  0  0
 11 16  2  0  0  0  0
 11 12  1  0  0  0  0
 12 13  2  0  0  0  0
 13 14  1  0  0  0  0
 15 14  2  0  0  0  0
 16 15  1  0  0  0  0
 17 22  1  0  0  0  0
 17  8  1  0  0  0  0
 18 17  2  0  0  0  0
 19 20  2  0  0  0  0
 19 18  1  0  0  0  0
 20 21  1  0  0  0  0
 21 22  2  0  0  0  0
 23 25  1  0  0  0  0
 23  1  1  0  0  0  0
 24 23  1  0  0  0  0
 25 30  1  0  0  0  0
 27 32  1  0  0  0  0
 27 26  1  0  0  0  0
 28 27  2  0  0  0  0
 29 30  2  0  0  0  0
 29 28  1  0  0  0  0
 30 31  1  0  0  0  0
 31 32  2  0  0  0  0
M  END
>  <minimizedAffinity>
-5.17705917

$$$$

 OpenBabel09122218303D

 32 36  0  0  0  0  0  0  0  0999 V2000
    2.8740  -11.8850    3.2100 C   0  0  0  0  0  0  0  0  0  0  0  0
    2.8350  -13.0350    2.5120 N   0  0  0  0  0  0  0  0  0  0  0  0
    3.2850  -12.9770    1.2580 C   0  0  0  0  0  3  0  0  0  0  0  0
    3.7830  -11.8980    0.6530 N   0  0  0  0  0  0  0  0  0  0  0  0
    3.8220  -10.7750    1.3640 C   0  0  0  0  0  0  0  0  0  0  0  0
    4.3530   -9.6960    0.7830 N   0  0  0  0  0  0  0  0  0  0  0  0
    4.4200   -8.5260    1.4850 C   0  0  0  0  0  0  0  0  0  0  0  0
    3.8860   -8.4250    2.7750 C   0  0  0  0  0  0  0  0  0  0  0  0
    3.3690   -9.5210    3.3860 N   0  0  0  0  0  0  0  0  0  0  0  0
    3.3540  -10.6870    2.6780 C   0  0  0  0  0  0  0  0  0  0  0  0
    5.1370   -7.4490    0.7750 C   0  0  0  0  0  0  0  0  0  0  0  0
    5.6100   -6.3060    1.4460 C   0  0  0  0  0  3  0  0  0  0  0  0
    6.2930   -5.2960    0.7630 C   0  0  0  0  0  3  0  0  0  0  0  0
    6.5290   -5.4160   -0.6040 C   0  0  0  0  0  3  0  0  0  0  0  0
    6.0890   -6.5470   -1.2860 C   0  0  0  0  0  3  0  0  0  0  0  0
    5.4040   -7.5550   -0.6010 C   0  0  0  0  0  3  0  0  0  0  0  0
    3.7830   -7.1930    3.5810 C   0  0  0  0  0  0  0  0  0  0  0  0
    2.5230   -6.6970    3.9650 C   0  0  0  0  0  3  0  0  0  0  0  0
    2.4030   -5.5220    4.7120 C   0  0  0  0  0  3  0  0  0  0  0  0
    3.5410   -4.8150    5.0850 C   0  0  0  0  0  3  0  0  0  0  0  0
    4.7980   -5.2760    4.7050 C   0  0  0  0  0  3  0  0  0  0  0  0
    4.9170   -6.4500    3.9540 C   0  0  0  0  0  3  0  0  0  0  0  0
    2.4960  -11.9050    4.5470 N   0  0  0  0  0  0  0  0  0  0  0  0
    3.0790  -11.3740    5.1860 H   0  0  0  0  0  0  0  0  0  0  0  0
    1.1970  -12.3530    4.9750 C   0  0  0  0  0  2  0  0  0  0  0  0
   -2.4760   -7.9030    4.1500 C   0  0  0  0  0  1  0  0  0  0  0  0
   -1.5510   -9.0550    4.4080 C   0  0  0  0  0  0  0  0  0  0  0  0
   -0.2560   -8.8290    4.8840 C   0  0  0  0  0  3  0  0  0  0  0  0
    0.6190   -9.8990    5.0830 C   0  0  0  0  0  3  0  0  0  0  0  0
    0.2190  -11.2140    4.8010 C   0  0  0  0  0  0  0  0  0  0  0  0
   -1.0710  -11.4350    4.3060 C   0  0  0  0  0  3  0  0  0  0  0  0
   -1.9480  -10.3640    4.1100 C   0  0  0  0  0  3  0  0  0  0  0  0
  1 23  1  0  0  0  0
  2  1  1  0  0  0  0
  3  2  2  0  0  0  0
  4  3  1  0  0  0  0
  4  5  2  0  0  0  0
  5 10  1  0  0  0  0
  6  5  1  0  0  0  0
  6  7  2  0  0  0  0
  7  8  1  0  0  0  0
  8  9  2  0  0  0  0
  8 17  1  0  0  0  0
 10  1  2  0  0  0  0
 10  9  1  0  0  0  0
 11 12  1  0  0  0  0
 11  7  1  0  0  0  0
 13 12  2  0  0  0  0
 14 13  1  0  0  0  0
 15 14  2  0  0  0  0
 15 16  1  0  0  0  0
 16 11  2  0  0  0  0
 17 22  2  0  0  0  0
 17 18  1  0  0  0  0
 18 19  2  0  0  0  0
 19 20  1  0  0  0  0
 21 20  2  0  0  0  0
 22 21  1  0  0  0  0
 23 25  1  0  0  0  0
 23 24  1  0  0  0  0
 26 27  1  0  0  0  0
 27 28  1  0  0  0  0
 28 29  2  0  0  0  0
 30 25  1  0  0  0  0
 30 29  1  0  0  0  0
 31 30  2  0  0  0  0
 32 31  1  0  0  0  0
 32 27  2  0  0  0  0
M  END
>  <minimizedAffinity>
-3.40681291

$$$$

 OpenBabel09122218303D

 32 36  0  0  0  0  0  0  0  0999 V2000
    3.8100  -10.7340    3.5260 C   0  0  0  0  0  0  0  0  0  0  0  0
    4.4750  -11.8830    3.3050 N   0  0  0  0  0  0  0  0  0  0  0  0
    3.7370  -12.9940    3.2870 C   0  0  0  0  0  3  0  0  0  0  0  0
    2.4150  -13.0600    3.4460 N   0  0  0  0  0  0  0  0  0  0  0  0
    1.7760  -11.9130    3.6520 C   0  0  0  0  0  0  0  0  0  0  0  0
    0.4480  -11.9600    3.7740 N   0  0  0  0  0  0  0  0  0  0  0  0
   -0.2450  -10.8000    3.9780 C   0  0  0  0  0  0  0  0  0  0  0  0
    0.4200   -9.5760    4.1220 C   0  0  0  0  0  0  0  0  0  0  0  0
    1.7680   -9.5110    3.9720 N   0  0  0  0  0  0  0  0  0  0  0  0
    2.4290  -10.6790    3.7270 C   0  0  0  0  0  0  0  0  0  0  0  0
   -1.7100  -10.9760    3.9730 C   0  0  0  0  0  0  0  0  0  0  0  0
   -2.4960  -10.6180    2.8620 C   0  0  0  0  0  3  0  0  0  0  0  0
   -3.8820  -10.7960    2.8680 C   0  0  0  0  0  3  0  0  0  0  0  0
   -4.5090  -11.3470    3.9820 C   0  0  0  0  0  3  0  0  0  0  0  0
   -3.7510  -11.7280    5.0860 C   0  0  0  0  0  3  0  0  0  0  0  0
   -2.3650  -11.5480    5.0780 C   0  0  0  0  0  3  0  0  0  0  0  0
   -0.2010   -8.2830    4.4690 C   0  0  0  0  0  0  0  0  0  0  0  0
   -1.6030   -8.1530    4.4990 C   0  0  0  0  0  3  0  0  0  0  0  0
   -2.2110   -6.9340    4.8080 C   0  0  0  0  0  3  0  0  0  0  0  0
   -1.4300   -5.8160    5.0860 C   0  0  0  0  0  3  0  0  0  0  0  0
   -0.0420   -5.9160    5.0470 C   0  0  0  0  0  3  0  0  0  0  0  0
    0.5650   -7.1350    4.7350 C   0  0  0  0  0  3  0  0  0  0  0  0
    4.5130   -9.5370    3.4720 N   0  0  0  0  0  0  0  0  0  0  0  0
    5.0340   -9.2850    4.3060 H   0  0  0  0  0  0  0  0  0  0  0  0
    4.7790   -8.8540    2.2340 C   0  0  0  0  0  2  0  0  0  0  0  0
    4.0630   -3.1500    3.2020 C   0  0  0  0  0  1  0  0  0  0  0  0
    4.2050   -4.6180    2.9250 C   0  0  0  0  0  0  0  0  0  0  0  0
    3.7450   -5.5600    3.8510 C   0  0  0  0  0  3  0  0  0  0  0  0
    3.9160   -6.9250    3.6130 C   0  0  0  0  0  3  0  0  0  0  0  0
    4.5580   -7.3740    2.4490 C   0  0  0  0  0  0  0  0  0  0  0  0
    5.0350   -6.4290    1.5340 C   0  0  0  0  0  3  0  0  0  0  0  0
    4.8610   -5.0620    1.7710 C   0  0  0  0  0  3  0  0  0  0  0  0
  1 10  2  0  0  0  0
  2  1  1  0  0  0  0
  3  2  2  0  0  0  0
  3  4  1  0  0  0  0
  4  5  2  0  0  0  0
  5 10  1  0  0  0  0
  5  6  1  0  0  0  0
  6  7  2  0  0  0  0
  7  8  1  0  0  0  0
  8 17  1  0  0  0  0
  9  8  2  0  0  0  0
 10  9  1  0  0  0  0
 11  7  1  0  0  0  0
 11 16  1  0  0  0  0
 12 13  1  0  0  0  0
 12 11  2  0  0  0  0
 13 14  2  0  0  0  0
 14 15  1  0  0  0  0
 16 15  2  0  0  0  0
 17 18  2  0  0  0  0
 17 22  1  0  0  0  0
 18 19  1  0  0  0  0
 19 20  2  0  0  0  0
 21 20  1  0  0  0  0
 22 21  2  0  0  0  0
 23  1  1  0  0  0  0
 23 24  1  0  0  0  0
 25 30  1  0  0  0  0
 25 23  1  0  0  0  0
 27 26  1  0  0  0  0
 27 28  1  0  0  0  0
 29 28  2  0  0  0  0
 30 29  1  0  0  0  0
 31 32  1  0  0  0  0
 31 30  2  0  0  0  0
 32 27  2  0  0  0  0
M  END
>  <minimizedAffinity>
-3.37212825

$$$$
