
 OpenBabel09122222393D

 32 36  0  0  0  0  0  0  0  0999 V2000
    2.8740  -11.8850    3.2100 C   0  0  0  0  0  0  0  0  0  0  0  0
    2.8350  -13.0350    2.5120 N   0  0  0  0  0  0  0  0  0  0  0  0
    3.2850  -12.9770    1.2580 C   0  0  0  0  0  3  0  0  0  0  0  0
    3.7830  -11.8980    0.6530 N   0  0  0  0  0  0  0  0  0  0  0  0
    3.8220  -10.7750    1.3640 C   0  0  0  0  0  0  0  0  0  0  0  0
    4.3530   -9.6960    0.7830 N   0  0  0  0  0  0  0  0  0  0  0  0
    4.4200   -8.5260    1.4850 C   0  0  0  0  0  0  0  0  0  0  0  0
    3.8860   -8.4250    2.7750 C   0  0  0  0  0  0  0  0  0  0  0  0
    3.3690   -9.5210    3.3860 N   0  0  0  0  0  0  0  0  0  0  0  0
    3.3540  -10.6870    2.6780 C   0  0  0  0  0  0  0  0  0  0  0  0
    5.1370   -7.4490    0.7750 C   0  0  0  0  0  0  0  0  0  0  0  0
    5.6100   -6.3060    1.4460 C   0  0  0  0  0  3  0  0  0  0  0  0
    6.2930   -5.2960    0.7630 C   0  0  0  0  0  3  0  0  0  0  0  0
    6.5290   -5.4160   -0.6040 C   0  0  0  0  0  3  0  0  0  0  0  0
    6.0890   -6.5470   -1.2860 C   0  0  0  0  0  3  0  0  0  0  0  0
    5.4040   -7.5550   -0.6010 C   0  0  0  0  0  3  0  0  0  0  0  0
    3.7830   -7.1930    3.5810 C   0  0  0  0  0  0  0  0  0  0  0  0
    2.5230   -6.6970    3.9650 C   0  0  0  0  0  3  0  0  0  0  0  0
    2.4030   -5.5220    4.7120 C   0  0  0  0  0  3  0  0  0  0  0  0
    3.5410   -4.8150    5.0850 C   0  0  0  0  0  3  0  0  0  0  0  0
    4.7980   -5.2760    4.7050 C   0  0  0  0  0  3  0  0  0  0  0  0
    4.9170   -6.4500    3.9540 C   0  0  0  0  0  3  0  0  0  0  0  0
    2.4960  -11.9050    4.5470 N   0  0  0  0  0  0  0  0  0  0  0  0
    3.0790  -11.3740    5.1860 H   0  0  0  0  0  0  0  0  0  0  0  0
    1.1970  -12.3530    4.9750 C   0  0  0  0  0  2  0  0  0  0  0  0
   -2.4760   -7.9030    4.1500 C   0  0  0  0  0  1  0  0  0  0  0  0
   -1.5510   -9.0550    4.4080 C   0  0  0  0  0  0  0  0  0  0  0  0
   -0.2560   -8.8290    4.8840 C   0  0  0  0  0  3  0  0  0  0  0  0
    0.6190   -9.8990    5.0830 C   0  0  0  0  0  3  0  0  0  0  0  0
    0.2190  -11.2140    4.8010 C   0  0  0  0  0  0  0  0  0  0  0  0
   -1.0710  -11.4350    4.3060 C   0  0  0  0  0  3  0  0  0  0  0  0
   -1.9480  -10.3640    4.1100 C   0  0  0  0  0  3  0  0  0  0  0  0
  1 23  1  0  0  0  0
  2  1  1  0  0  0  0
  3  2  2  0  0  0  0
  4  3  1  0  0  0  0
  4  5  2  0  0  0  0
  5 10  1  0  0  0  0
  6  5  1  0  0  0  0
  6  7  2  0  0  0  0
  7  8  1  0  0  0  0
  8  9  2  0  0  0  0
  8 17  1  0  0  0  0
 10  1  2  0  0  0  0
 10  9  1  0  0  0  0
 11 12  1  0  0  0  0
 11  7  1  0  0  0  0
 13 12  2  0  0  0  0
 14 13  1  0  0  0  0
 15 14  2  0  0  0  0
 15 16  1  0  0  0  0
 16 11  2  0  0  0  0
 17 22  2  0  0  0  0
 17 18  1  0  0  0  0
 18 19  2  0  0  0  0
 19 20  1  0  0  0  0
 21 20  2  0  0  0  0
 22 21  1  0  0  0  0
 23 25  1  0  0  0  0
 23 24  1  0  0  0  0
 26 27  1  0  0  0  0
 27 28  1  0  0  0  0
 28 29  2  0  0  0  0
 30 25  1  0  0  0  0
 30 29  1  0  0  0  0
 31 30  2  0  0  0  0
 32 31  1  0  0  0  0
 32 27  2  0  0  0  0
M  END
>  <minimizedAffinity>
-3.40681291

$$$$
