
 OpenBabel09122222393D

 32 36  0  0  0  0  0  0  0  0999 V2000
    0.6170  -10.6150    2.9360 C   0  0  0  0  0  0  0  0  0  0  0  0
   -0.4470  -11.0070    3.6620 N   0  0  0  0  0  0  0  0  0  0  0  0
   -0.7570  -10.2410    4.7090 C   0  0  0  0  0  3  0  0  0  0  0  0
   -0.1260   -9.1270    5.0800 N   0  0  0  0  0  0  0  0  0  0  0  0
    0.9150   -8.7520    4.3440 C   0  0  0  0  0  0  0  0  0  0  0  0
    1.5330   -7.6180    4.6810 N   0  0  0  0  0  0  0  0  0  0  0  0
    2.6020   -7.1940    3.9420 C   0  0  0  0  0  0  0  0  0  0  0  0
    3.0940   -7.9610    2.8790 C   0  0  0  0  0  0  0  0  0  0  0  0
    2.4580   -9.1010    2.5090 N   0  0  0  0  0  0  0  0  0  0  0  0
    1.3690   -9.4780    3.2380 C   0  0  0  0  0  0  0  0  0  0  0  0
    3.1140   -5.8700    4.3440 C   0  0  0  0  0  0  0  0  0  0  0  0
    4.4720   -5.6620    4.6500 C   0  0  0  0  0  3  0  0  0  0  0  0
    4.9450   -4.4010    5.0240 C   0  0  0  0  0  3  0  0  0  0  0  0
    4.0700   -3.3200    5.0860 C   0  0  0  0  0  3  0  0  0  0  0  0
    2.7260   -3.4950    4.7690 C   0  0  0  0  0  3  0  0  0  0  0  0
    2.2550   -4.7580    4.3970 C   0  0  0  0  0  3  0  0  0  0  0  0
    4.3100   -7.6770    2.0910 C   0  0  0  0  0  0  0  0  0  0  0  0
    4.3190   -6.6300    1.1510 C   0  0  0  0  0  3  0  0  0  0  0  0
    5.4530   -6.3550    0.3820 C   0  0  0  0  0  3  0  0  0  0  0  0
    6.6000   -7.1280    0.5330 C   0  0  0  0  0  3  0  0  0  0  0  0
    6.6110   -8.1790    1.4450 C   0  0  0  0  0  3  0  0  0  0  0  0
    5.4750   -8.4540    2.2110 C   0  0  0  0  0  3  0  0  0  0  0  0
    0.9350  -11.3250    1.7850 N   0  0  0  0  0  0  0  0  0  0  0  0
    1.0830  -10.7770    0.9450 H   0  0  0  0  0  0  0  0  0  0  0  0
    1.3620  -12.6990    1.8210 C   0  0  0  0  0  2  0  0  0  0  0  0
    6.1890  -12.8600    5.0850 C   0  0  0  0  0  1  0  0  0  0  0  0
    4.9460  -12.8690    4.2450 C   0  0  0  0  0  0  0  0  0  0  0  0
    5.0310  -12.7350    2.8550 C   0  0  0  0  0  3  0  0  0  0  0  0
    3.8720  -12.7010    2.0780 C   0  0  0  0  0  3  0  0  0  0  0  0
    2.6060  -12.7900    2.6750 C   0  0  0  0  0  0  0  0  0  0  0  0
    2.5230  -12.9040    4.0680 C   0  0  0  0  0  3  0  0  0  0  0  0
    3.6840  -12.9410    4.8450 C   0  0  0  0  0  3  0  0  0  0  0  0
  1 10  2  0  0  0  0
  1  2  1  0  0  0  0
  2  3  2  0  0  0  0
  3  4  1  0  0  0  0
  5  6  1  0  0  0  0
  5  4  2  0  0  0  0
  7 11  1  0  0  0  0
  7  6  2  0  0  0  0
  8  7  1  0  0  0  0
  9  8  2  0  0  0  0
  9 10  1  0  0  0  0
 10  5  1  0  0  0  0
 11 16  2  0  0  0  0
 11 12  1  0  0  0  0
 12 13  2  0  0  0  0
 13 14  1  0  0  0  0
 15 14  2  0  0  0  0
 16 15  1  0  0  0  0
 17 22  1  0  0  0  0
 17  8  1  0  0  0  0
 18 17  2  0  0  0  0
 19 20  2  0  0  0  0
 19 18  1  0  0  0  0
 20 21  1  0  0  0  0
 21 22  2  0  0  0  0
 23 25  1  0  0  0  0
 23  1  1  0  0  0  0
 24 23  1  0  0  0  0
 25 30  1  0  0  0  0
 27 32  1  0  0  0  0
 27 26  1  0  0  0  0
 28 27  2  0  0  0  0
 29 30  2  0  0  0  0
 29 28  1  0  0  0  0
 30 31  1  0  0  0  0
 31 32  2  0  0  0  0
M  END
>  <minimizedAffinity>
-5.17705917

$$$$
