
 OpenBabel09122222393D

 32 36  0  0  0  0  0  0  0  0999 V2000
    3.8100  -10.7340    3.5260 C   0  0  0  0  0  0  0  0  0  0  0  0
    4.4750  -11.8830    3.3050 N   0  0  0  0  0  0  0  0  0  0  0  0
    3.7370  -12.9940    3.2870 C   0  0  0  0  0  3  0  0  0  0  0  0
    2.4150  -13.0600    3.4460 N   0  0  0  0  0  0  0  0  0  0  0  0
    1.7760  -11.9130    3.6520 C   0  0  0  0  0  0  0  0  0  0  0  0
    0.4480  -11.9600    3.7740 N   0  0  0  0  0  0  0  0  0  0  0  0
   -0.2450  -10.8000    3.9780 C   0  0  0  0  0  0  0  0  0  0  0  0
    0.4200   -9.5760    4.1220 C   0  0  0  0  0  0  0  0  0  0  0  0
    1.7680   -9.5110    3.9720 N   0  0  0  0  0  0  0  0  0  0  0  0
    2.4290  -10.6790    3.7270 C   0  0  0  0  0  0  0  0  0  0  0  0
   -1.7100  -10.9760    3.9730 C   0  0  0  0  0  0  0  0  0  0  0  0
   -2.4960  -10.6180    2.8620 C   0  0  0  0  0  3  0  0  0  0  0  0
   -3.8820  -10.7960    2.8680 C   0  0  0  0  0  3  0  0  0  0  0  0
   -4.5090  -11.3470    3.9820 C   0  0  0  0  0  3  0  0  0  0  0  0
   -3.7510  -11.7280    5.0860 C   0  0  0  0  0  3  0  0  0  0  0  0
   -2.3650  -11.5480    5.0780 C   0  0  0  0  0  3  0  0  0  0  0  0
   -0.2010   -8.2830    4.4690 C   0  0  0  0  0  0  0  0  0  0  0  0
   -1.6030   -8.1530    4.4990 C   0  0  0  0  0  3  0  0  0  0  0  0
   -2.2110   -6.9340    4.8080 C   0  0  0  0  0  3  0  0  0  0  0  0
   -1.4300   -5.8160    5.0860 C   0  0  0  0  0  3  0  0  0  0  0  0
   -0.0420   -5.9160    5.0470 C   0  0  0  0  0  3  0  0  0  0  0  0
    0.5650   -7.1350    4.7350 C   0  0  0  0  0  3  0  0  0  0  0  0
    4.5130   -9.5370    3.4720 N   0  0  0  0  0  0  0  0  0  0  0  0
    5.0340   -9.2850    4.3060 H   0  0  0  0  0  0  0  0  0  0  0  0
    4.7790   -8.8540    2.2340 C   0  0  0  0  0  2  0  0  0  0  0  0
    4.0630   -3.1500    3.2020 C   0  0  0  0  0  1  0  0  0  0  0  0
    4.2050   -4.6180    2.9250 C   0  0  0  0  0  0  0  0  0  0  0  0
    3.7450   -5.5600    3.8510 C   0  0  0  0  0  3  0  0  0  0  0  0
    3.9160   -6.9250    3.6130 C   0  0  0  0  0  3  0  0  0  0  0  0
    4.5580   -7.3740    2.4490 C   0  0  0  0  0  0  0  0  0  0  0  0
    5.0350   -6.4290    1.5340 C   0  0  0  0  0  3  0  0  0  0  0  0
    4.8610   -5.0620    1.7710 C   0  0  0  0  0  3  0  0  0  0  0  0
  1 10  2  0  0  0  0
  2  1  1  0  0  0  0
  3  2  2  0  0  0  0
  3  4  1  0  0  0  0
  4  5  2  0  0  0  0
  5 10  1  0  0  0  0
  5  6  1  0  0  0  0
  6  7  2  0  0  0  0
  7  8  1  0  0  0  0
  8 17  1  0  0  0  0
  9  8  2  0  0  0  0
 10  9  1  0  0  0  0
 11  7  1  0  0  0  0
 11 16  1  0  0  0  0
 12 13  1  0  0  0  0
 12 11  2  0  0  0  0
 13 14  2  0  0  0  0
 14 15  1  0  0  0  0
 16 15  2  0  0  0  0
 17 18  2  0  0  0  0
 17 22  1  0  0  0  0
 18 19  1  0  0  0  0
 19 20  2  0  0  0  0
 21 20  1  0  0  0  0
 22 21  2  0  0  0  0
 23  1  1  0  0  0  0
 23 24  1  0  0  0  0
 25 30  1  0  0  0  0
 25 23  1  0  0  0  0
 27 26  1  0  0  0  0
 27 28  1  0  0  0  0
 29 28  2  0  0  0  0
 30 29  1  0  0  0  0
 31 32  1  0  0  0  0
 31 30  2  0  0  0  0
 32 27  2  0  0  0  0
M  END
>  <minimizedAffinity>
-3.37212825

$$$$
