
 OpenBabel09122222393D

 25 28  0  0  0  0  0  0  0  0999 V2000
    4.0820   -4.6730    5.6230 C   0  0  0  0  0  1  0  0  0  0  0  0
    4.3380   -5.5960    4.5390 N   0  0  0  0  0  0  0  0  0  0  0  0
    3.6580   -6.7680    4.2760 C   0  0  0  0  0  0  0  0  0  0  0  0
    4.2420   -7.3480    3.1460 C   0  0  0  0  0  0  0  0  0  0  0  0
    5.2970   -6.4690    2.7250 C   0  0  0  0  0  0  0  0  0  0  0  0
    6.2450   -6.4530    1.6900 C   0  0  0  0  0  3  0  0  0  0  0  0
    7.1240   -5.3680    1.6250 C   0  0  0  0  0  3  0  0  0  0  0  0
    7.0560   -4.3320    2.5660 C   0  0  0  0  0  0  0  0  0  0  0  0
    6.1420   -4.3320    3.5810 N   0  0  0  0  0  0  0  0  0  0  0  0
    5.3190   -5.3960    3.6050 C   0  0  0  0  0  0  0  0  0  0  0  0
    2.5370   -7.2440    5.0820 C   0  0  0  0  0  0  0  0  0  0  0  0
    1.3250   -6.5470    5.0870 C   0  0  0  0  0  3  0  0  0  0  0  0
    0.2530   -7.0050    5.8560 C   0  0  0  0  0  3  0  0  0  0  0  0
    0.3900   -8.1630    6.6210 C   0  0  0  0  0  3  0  0  0  0  0  0
    1.5950   -8.8650    6.6190 C   0  0  0  0  0  3  0  0  0  0  0  0
    2.6670   -8.4070    5.8500 C   0  0  0  0  0  3  0  0  0  0  0  0
    3.8150   -8.6450    2.4980 C   0  0  0  0  0  3  0  0  0  0  0  0
    2.3310   -8.9630    2.7460 C   0  0  0  0  0  2  0  0  0  0  0  0
    1.9270  -10.2900    2.1030 C   0  0  0  0  0  2  0  0  0  0  0  0
    2.2660  -10.3200    0.6160 C   0  0  0  0  0  2  0  0  0  0  0  0
    3.7390  -10.0150    0.3670 C   0  0  0  0  0  2  0  0  0  0  0  0
    4.1540   -8.6870    0.9990 C   0  0  0  0  0  2  0  0  0  0  0  0
    8.0590   -3.1600    2.4320 C   0  0  0  0  0  0  0  0  0  0  0  0
    8.4440   -2.5660    3.4930 O   0  0  0  0  0  1  0  0  0  0  0  0
    8.4440   -2.8570    1.2500 O   0  0  0  0  0  0  0  0  0  0  0  0
  2  1  1  0  0  0  0
  3  2  1  0  0  0  0
  3 11  1  0  0  0  0
  4  3  2  0  0  0  0
  5  4  1  0  0  0  0
  5 10  1  0  0  0  0
  6  5  2  0  0  0  0
  7  6  1  0  0  0  0
  7  8  2  0  0  0  0
  8  9  1  0  0  0  0
  9 10  2  0  0  0  0
 10  2  1  0  0  0  0
 11 12  2  0  0  0  0
 11 16  1  0  0  0  0
 12 13  1  0  0  0  0
 13 14  2  0  0  0  0
 15 14  1  0  0  0  0
 16 15  2  0  0  0  0
 17 18  1  0  0  0  0
 17  4  1  0  0  0  0
 19 18  1  0  0  0  0
 20 19  1  0  0  0  0
 21 20  1  0  0  0  0
 21 22  1  0  0  0  0
 22 17  1  0  0  0  0
 23  8  1  0  0  0  0
 23 24  1  0  0  0  0
 25 23  2  0  0  0  0
M  END
>  <minimizedAffinity>
-3.72772765

$$$$
