
 OpenBabel09122222393D

 25 28  0  0  0  0  0  0  0  0999 V2000
    3.5490   -8.6590    3.2570 C   0  0  0  0  0  1  0  0  0  0  0  0
    3.7050   -7.2570    3.5730 N   0  0  0  0  0  0  0  0  0  0  0  0
    2.9020   -6.5050    4.4080 C   0  0  0  0  0  0  0  0  0  0  0  0
    3.4070   -5.2020    4.4150 C   0  0  0  0  0  0  0  0  0  0  0  0
    4.5610   -5.1970    3.5590 C   0  0  0  0  0  0  0  0  0  0  0  0
    5.5050   -4.2460    3.1410 C   0  0  0  0  0  3  0  0  0  0  0  0
    6.5180   -4.6660    2.2740 C   0  0  0  0  0  3  0  0  0  0  0  0
    6.5830   -5.9970    1.8390 C   0  0  0  0  0  0  0  0  0  0  0  0
    5.6730   -6.9350    2.2330 N   0  0  0  0  0  0  0  0  0  0  0  0
    4.7160   -6.4850    3.0650 C   0  0  0  0  0  0  0  0  0  0  0  0
    1.7510   -7.0520    5.1220 C   0  0  0  0  0  0  0  0  0  0  0  0
    0.4910   -6.4600    4.9870 C   0  0  0  0  0  3  0  0  0  0  0  0
   -0.6080   -6.9860    5.6680 C   0  0  0  0  0  3  0  0  0  0  0  0
   -0.4520   -8.1070    6.4840 C   0  0  0  0  0  3  0  0  0  0  0  0
    0.8010   -8.7040    6.6190 C   0  0  0  0  0  3  0  0  0  0  0  0
    1.9010   -8.1780    5.9380 C   0  0  0  0  0  3  0  0  0  0  0  0
    2.8410   -4.0390    5.1960 C   0  0  0  0  0  3  0  0  0  0  0  0
    3.9400   -3.1580    5.8150 C   0  0  0  0  0  2  0  0  0  0  0  0
    3.3460   -2.0040    6.6200 C   0  0  0  0  0  2  0  0  0  0  0  0
    2.3720   -1.1780    5.7850 C   0  0  0  0  0  2  0  0  0  0  0  0
    1.2750   -2.0460    5.1780 C   0  0  0  0  0  2  0  0  0  0  0  0
    1.8560   -3.2020    4.3640 C   0  0  0  0  0  2  0  0  0  0  0  0
    7.7330   -6.3940    0.8810 C   0  0  0  0  0  0  0  0  0  0  0  0
    8.1070   -5.5520   -0.0000 O   0  0  0  0  0  0  0  0  0  0  0  0
    8.2430   -7.5570    1.0360 O   0  0  0  0  0  1  0  0  0  0  0  0
  1  2  1  0  0  0  0
  2  3  1  0  0  0  0
  3  4  2  0  0  0  0
  3 11  1  0  0  0  0
  4 17  1  0  0  0  0
  5  4  1  0  0  0  0
  6  5  1  0  0  0  0
  7  6  2  0  0  0  0
  8  9  2  0  0  0  0
  8  7  1  0  0  0  0
  9 10  1  0  0  0  0
 10  5  2  0  0  0  0
 10  2  1  0  0  0  0
 11 16  1  0  0  0  0
 12 11  2  0  0  0  0
 12 13  1  0  0  0  0
 13 14  2  0  0  0  0
 14 15  1  0  0  0  0
 16 15  2  0  0  0  0
 17 18  1  0  0  0  0
 18 19  1  0  0  0  0
 20 19  1  0  0  0  0
 21 20  1  0  0  0  0
 22 21  1  0  0  0  0
 22 17  1  0  0  0  0
 23 25  1  0  0  0  0
 23  8  1  0  0  0  0
 24 23  2  0  0  0  0
M  END
>  <minimizedAffinity>
-4.81467819

$$$$
