
 OpenBabel09122222393D

 25 28  0  0  0  0  0  0  0  0999 V2000
    2.9040   -9.1980    2.2140 C   0  0  0  0  0  1  0  0  0  0  0  0
    3.3360   -7.9280    2.7530 N   0  0  0  0  0  0  0  0  0  0  0  0
    2.9370   -7.3590    3.9470 C   0  0  0  0  0  0  0  0  0  0  0  0
    3.5910   -6.1300    4.0650 C   0  0  0  0  0  0  0  0  0  0  0  0
    4.4160   -5.9820    2.8980 C   0  0  0  0  0  0  0  0  0  0  0  0
    5.3060   -5.0150    2.4070 C   0  0  0  0  0  3  0  0  0  0  0  0
    5.9380   -5.2670    1.1860 C   0  0  0  0  0  3  0  0  0  0  0  0
    5.6870   -6.4510    0.4790 C   0  0  0  0  0  0  0  0  0  0  0  0
    4.8230   -7.4030    0.9410 N   0  0  0  0  0  0  0  0  0  0  0  0
    4.2370   -7.1160    2.1170 C   0  0  0  0  0  0  0  0  0  0  0  0
    1.9980   -7.9970    4.8650 C   0  0  0  0  0  0  0  0  0  0  0  0
    0.7160   -7.4680    5.0440 C   0  0  0  0  0  3  0  0  0  0  0  0
   -0.1810   -8.0800    5.9200 C   0  0  0  0  0  3  0  0  0  0  0  0
    0.1990   -9.2260    6.6190 C   0  0  0  0  0  3  0  0  0  0  0  0
    1.4750   -9.7610    6.4430 C   0  0  0  0  0  3  0  0  0  0  0  0
    2.3730   -9.1480    5.5670 C   0  0  0  0  0  3  0  0  0  0  0  0
    3.4540   -5.1640    5.2190 C   0  0  0  0  0  3  0  0  0  0  0  0
    4.7260   -4.3260    5.4360 C   0  0  0  0  0  2  0  0  0  0  0  0
    4.5750   -3.3740    6.6210 C   0  0  0  0  0  2  0  0  0  0  0  0
    3.3390   -2.4900    6.4790 C   0  0  0  0  0  2  0  0  0  0  0  0
    2.0750   -3.3170    6.2740 C   0  0  0  0  0  2  0  0  0  0  0  0
    2.2110   -4.2700    5.0870 C   0  0  0  0  0  2  0  0  0  0  0  0
    6.4230   -6.6660   -0.8660 C   0  0  0  0  0  0  0  0  0  0  0  0
    6.1270   -7.6910   -1.5640 O   0  0  0  0  0  0  0  0  0  0  0  0
    7.2940   -5.7900   -1.1980 O   0  0  0  0  0  1  0  0  0  0  0  0
  1  2  1  0  0  0  0
  2  3  1  0  0  0  0
  3  4  2  0  0  0  0
  3 11  1  0  0  0  0
  4 17  1  0  0  0  0
  5  4  1  0  0  0  0
  6  5  1  0  0  0  0
  7  6  2  0  0  0  0
  8  9  2  0  0  0  0
  8  7  1  0  0  0  0
  9 10  1  0  0  0  0
 10  2  1  0  0  0  0
 10  5  2  0  0  0  0
 11 12  2  0  0  0  0
 11 16  1  0  0  0  0
 12 13  1  0  0  0  0
 13 14  2  0  0  0  0
 15 14  1  0  0  0  0
 16 15  2  0  0  0  0
 17 18  1  0  0  0  0
 18 19  1  0  0  0  0
 20 19  1  0  0  0  0
 21 20  1  0  0  0  0
 22 17  1  0  0  0  0
 22 21  1  0  0  0  0
 23  8  1  0  0  0  0
 24 23  2  0  0  0  0
 25 23  1  0  0  0  0
M  END
>  <minimizedAffinity>
-4.21793699

$$$$
