
 OpenBabel09122222393D

 25 28  0  0  0  0  0  0  0  0999 V2000
    3.2340   -9.9100    2.4310 C   0  0  0  0  0  1  0  0  0  0  0  0
    3.0540   -8.7380    3.2590 N   0  0  0  0  0  0  0  0  0  0  0  0
    3.9090   -7.6590    3.3600 C   0  0  0  0  0  0  0  0  0  0  0  0
    3.3520   -6.7660    4.2790 C   0  0  0  0  0  0  0  0  0  0  0  0
    2.1120   -7.3420    4.7210 C   0  0  0  0  0  0  0  0  0  0  0  0
    1.0880   -6.9750    5.6070 C   0  0  0  0  0  3  0  0  0  0  0  0
    0.0060   -7.8470    5.7540 C   0  0  0  0  0  3  0  0  0  0  0  0
   -0.0490   -9.0490    5.0350 C   0  0  0  0  0  0  0  0  0  0  0  0
    0.9390   -9.4230    4.1700 N   0  0  0  0  0  0  0  0  0  0  0  0
    1.9600   -8.5550    4.0630 C   0  0  0  0  0  0  0  0  0  0  0  0
    5.1540   -7.5490    2.6040 C   0  0  0  0  0  0  0  0  0  0  0  0
    5.3080   -6.5460    1.6420 C   0  0  0  0  0  3  0  0  0  0  0  0
    6.4990   -6.4390    0.9220 C   0  0  0  0  0  3  0  0  0  0  0  0
    7.5420   -7.3340    1.1640 C   0  0  0  0  0  3  0  0  0  0  0  0
    7.3960   -8.3340    2.1250 C   0  0  0  0  0  3  0  0  0  0  0  0
    6.2040   -8.4410    2.8450 C   0  0  0  0  0  3  0  0  0  0  0  0
    3.9490   -5.4420    4.6980 C   0  0  0  0  0  3  0  0  0  0  0  0
    3.1170   -4.2440    4.2110 C   0  0  0  0  0  2  0  0  0  0  0  0
    3.7510   -2.9160    4.6250 C   0  0  0  0  0  2  0  0  0  0  0  0
    3.9950   -2.8540    6.1300 C   0  0  0  0  0  2  0  0  0  0  0  0
    4.8290   -4.0360    6.6150 C   0  0  0  0  0  2  0  0  0  0  0  0
    4.2020   -5.3700    6.2130 C   0  0  0  0  0  2  0  0  0  0  0  0
   -1.2790   -9.9670    5.2440 C   0  0  0  0  0  0  0  0  0  0  0  0
   -1.5800  -10.3180    6.4330 O   0  0  0  0  0  1  0  0  0  0  0  0
   -1.9250  -10.3200    4.1980 O   0  0  0  0  0  0  0  0  0  0  0  0
  1  2  1  0  0  0  0
  2  3  1  0  0  0  0
  2 10  1  0  0  0  0
  3  4  2  0  0  0  0
  4 17  1  0  0  0  0
  4  5  1  0  0  0  0
  5  6  1  0  0  0  0
  6  7  2  0  0  0  0
  8 23  1  0  0  0  0
  8  7  1  0  0  0  0
  9  8  2  0  0  0  0
 10  9  1  0  0  0  0
 10  5  2  0  0  0  0
 11 16  1  0  0  0  0
 11  3  1  0  0  0  0
 12 11  2  0  0  0  0
 13 14  2  0  0  0  0
 13 12  1  0  0  0  0
 14 15  1  0  0  0  0
 15 16  2  0  0  0  0
 17 22  1  0  0  0  0
 18 19  1  0  0  0  0
 18 17  1  0  0  0  0
 19 20  1  0  0  0  0
 20 21  1  0  0  0  0
 22 21  1  0  0  0  0
 23 24  1  0  0  0  0
 25 23  2  0  0  0  0
M  END
>  <minimizedAffinity>
-3.73397875

$$$$
