
 OpenBabel09122221253D

 38 40  0  0  1  0  0  0  0  0999 V2000
    2.1720   -3.9160    3.9600 C   0  0  0  0  0  1  0  0  0  0  0  0
    2.8240   -4.8400    4.9770 C   0  0  1  0  0  0  0  0  0  0  0  0
    2.1610   -6.2180    5.0730 C   0  0  1  0  0  3  0  0  0  0  0  0
    3.2050   -6.8960    5.9340 C   0  0  2  0  0  3  0  0  0  0  0  0
    4.4680   -6.5110    5.3950 O   0  0  0  0  0  0  0  0  0  0  0  0
    4.3050   -5.2450    4.7200 C   0  0  1  0  0  3  0  0  0  0  0  0
    4.6970   -5.5540    3.2910 C   0  0  0  0  0  0  0  0  0  0  0  0
    4.6890   -4.7480    2.1590 C   0  0  0  0  0  3  0  0  0  0  0  0
    4.8570   -5.5820    1.0300 C   0  0  0  0  0  3  0  0  0  0  0  0
    4.9610   -6.8690    1.5070 C   0  0  0  0  0  0  0  0  0  0  0  0
    5.0430   -8.1430    0.8760 C   0  0  0  0  0  0  0  0  0  0  0  0
    4.9470   -8.3130   -0.4720 N   0  0  0  0  0  0  0  0  0  0  0  0
    5.1900   -9.2000    1.6190 N   0  0  0  0  0  0  0  0  0  0  0  0
    5.2220   -9.0300    2.9860 C   0  0  0  0  0  3  0  0  0  0  0  0
    5.1320   -7.9160    3.6410 N   0  0  0  0  0  0  0  0  0  0  0  0
    4.9410   -6.8360    2.8700 N   0  0  0  0  0  0  0  0  0  0  0  0
    4.5820   -7.5600   -1.0370 H   0  0  0  0  0  0  0  0  0  0  0  0
    4.8490   -9.2610   -0.8010 H   0  0  0  0  0  0  0  0  0  0  0  0
    2.6570   -4.2030    6.3130 N   0  0  0  0  0  4  0  0  0  0  0  0
    3.2080   -3.2930    6.3200 H   0  0  0  0  0  0  0  0  0  0  0  0
    1.7840   -4.0130    6.7780 H   0  0  0  0  0  0  0  0  0  0  0  0
    3.3600   -4.5270    7.0670 H   0  0  0  0  0  0  0  0  0  0  0  0
    0.8470   -6.1930    5.6470 O   0  0  0  0  0  0  0  0  0  0  0  0
    0.9590   -6.3760    6.6030 H   0  0  0  0  0  0  0  0  0  0  0  0
    3.1300   -8.3880    6.0440 C   0  0  0  0  0  2  0  0  0  0  0  0
    2.3910   -8.7930    4.9120 O   0  0  0  0  0  0  0  0  0  0  0  0
    1.0610   -9.8540    5.2270 P   0  0  1  0  0  0  0  0  0  0  0  0
    1.2130  -10.3570    3.7730 O   0  0  0  0  0  0  0  0  0  0  0  0
    1.9460  -10.5480    6.2980 O   0  0  0  0  0  1  0  0  0  0  0  0
   -0.2680  -10.9150    5.5410 O   0  0  0  0  0  0  0  0  0  0  0  0
   -1.7110   -9.9850    5.7510 P   0  0  1  0  0  0  0  0  0  0  0  0
   -0.9110   -8.6750    5.4760 O   0  0  0  0  0  1  0  0  0  0  0  0
   -2.3320  -10.6630    4.4920 O   0  0  0  0  0  0  0  0  0  0  0  0
   -3.1550   -9.0540    5.9620 O   0  0  0  0  0  0  0  0  0  0  0  0
   -2.8470   -7.4080    5.5260 P   0  0  0  0  0  0  0  0  0  0  0  0
   -3.0100   -7.6700    3.9930 O   0  0  0  0  0  0  0  0  0  0  0  0
   -4.1100   -6.9860    6.3140 O   0  0  0  0  0  1  0  0  0  0  0  0
   -2.5390   -5.7620    5.0930 O   0  0  0  0  0  1  0  0  0  0  0  0
  2  1  1  6  0  0  0
  2  3  1  0  0  0  0
  2 19  1  0  0  0  0
  3 23  1  1  0  0  0
  3  4  1  0  0  0  0
  4 25  1  6  0  0  0
  5  4  1  0  0  0  0
  6  7  1  6  0  0  0
  6  2  1  0  0  0  0
  6  5  1  0  0  0  0
  8  7  2  0  0  0  0
  9 10  2  0  0  0  0
  9  8  1  0  0  0  0
 10 16  1  0  0  0  0
 11 10  1  0  0  0  0
 11 13  2  0  0  0  0
 12 11  1  0  0  0  0
 13 14  1  0  0  0  0
 14 15  2  0  0  0  0
 16  7  1  0  0  0  0
 16 15  1  0  0  0  0
 17 12  1  0  0  0  0
 18 12  1  0  0  0  0
 19 20  1  0  0  0  0
 19 21  1  0  0  0  0
 19 22  1  0  0  0  0
 23 24  1  0  0  0  0
 26 27  1  0  0  0  0
 26 25  1  0  0  0  0
 27 28  2  6  0  0  0
 27 30  1  0  0  0  0
 27 29  1  0  0  0  0
 30 31  1  0  0  0  0
 31 33  2  6  0  0  0
 31 34  1  0  0  0  0
 32 31  1  0  0  0  0
 35 34  1  0  0  0  0
 35 37  1  0  0  0  0
 36 35  2  0  0  0  0
 38 35  1  0  0  0  0
M  END
>  <minimizedAffinity>
-5.0985446

$$$$

 OpenBabel09122221253D

 38 40  0  0  1  0  0  0  0  0999 V2000
    4.0270   -3.0060    2.6910 C   0  0  0  0  0  1  0  0  0  0  0  0
    4.2490   -3.8120    3.9610 C   0  0  1  0  0  0  0  0  0  0  0  0
    2.9700   -4.4420    4.5240 C   0  0  1  0  0  3  0  0  0  0  0  0
    3.6130   -5.3350    5.5630 C   0  0  2  0  0  3  0  0  0  0  0  0
    4.7370   -5.9360    4.9220 O   0  0  0  0  0  0  0  0  0  0  0  0
    5.1680   -5.0640    3.8550 C   0  0  1  0  0  3  0  0  0  0  0  0
    5.0230   -5.9220    2.6170 C   0  0  0  0  0  0  0  0  0  0  0  0
    4.7470   -5.5700    1.3020 C   0  0  0  0  0  3  0  0  0  0  0  0
    4.4240   -6.7510    0.5940 C   0  0  0  0  0  3  0  0  0  0  0  0
    4.5110   -7.7850    1.4980 C   0  0  0  0  0  0  0  0  0  0  0  0
    4.2150   -9.1760    1.4260 C   0  0  0  0  0  0  0  0  0  0  0  0
    3.6590   -9.7620    0.3290 N   0  0  0  0  0  0  0  0  0  0  0  0
    4.4610   -9.9220    2.4610 N   0  0  0  0  0  0  0  0  0  0  0  0
    4.9630   -9.3140    3.5920 C   0  0  0  0  0  3  0  0  0  0  0  0
    5.2390   -8.0580    3.7500 N   0  0  0  0  0  0  0  0  0  0  0  0
    4.9470   -7.2900    2.6920 N   0  0  0  0  0  0  0  0  0  0  0  0
    3.2280   -9.1790   -0.3740 H   0  0  0  0  0  0  0  0  0  0  0  0
    3.3350  -10.7100    0.4390 H   0  0  0  0  0  0  0  0  0  0  0  0
    4.7380   -2.8620    4.9990 N   0  0  0  0  0  4  0  0  0  0  0  0
    5.6880   -2.4950    4.6930 H   0  0  0  0  0  0  0  0  0  0  0  0
    4.2330   -2.0760    5.3730 H   0  0  0  0  0  0  0  0  0  0  0  0
    5.2800   -3.3150    5.8160 H   0  0  0  0  0  0  0  0  0  0  0  0
    2.0400   -3.4890    5.0580 O   0  0  0  0  0  0  0  0  0  0  0  0
    2.2230   -3.4320    6.0180 H   0  0  0  0  0  0  0  0  0  0  0  0
    2.7490   -6.3930    6.1770 C   0  0  0  0  0  2  0  0  0  0  0  0
    2.3540   -7.2060    5.0940 O   0  0  0  0  0  0  0  0  0  0  0  0
    1.7940   -8.7890    5.5100 P   0  0  1  0  0  0  0  0  0  0  0  0
    3.1330   -8.9880    6.2570 O   0  0  0  0  0  0  0  0  0  0  0  0
    0.6480   -8.1080    6.3070 O   0  0  0  0  0  1  0  0  0  0  0  0
    1.2350  -10.3710    5.9270 O   0  0  0  0  0  0  0  0  0  0  0  0
   -0.3520  -10.6100    5.2820 P   0  0  1  0  0  0  0  0  0  0  0  0
   -0.9240   -9.5710    6.2940 O   0  0  0  0  0  1  0  0  0  0  0  0
    0.1130  -10.0220    3.9150 O   0  0  0  0  0  0  0  0  0  0  0  0
   -1.9410  -10.8490    4.6360 O   0  0  0  0  0  0  0  0  0  0  0  0
   -2.8200   -9.3600    4.7040 P   0  0  0  0  0  0  0  0  0  0  0  0
   -3.2310   -9.4100    3.1960 O   0  0  0  0  0  0  0  0  0  0  0  0
   -3.7860  -10.0030    5.7260 O   0  0  0  0  0  1  0  0  0  0  0  0
   -3.6990   -7.8720    4.7740 O   0  0  0  0  0  1  0  0  0  0  0  0
  2  1  1  6  0  0  0
  2  3  1  0  0  0  0
  2 19  1  0  0  0  0
  3 23  1  1  0  0  0
  3  4  1  0  0  0  0
  4 25  1  6  0  0  0
  5  4  1  0  0  0  0
  6  7  1  6  0  0  0
  6  2  1  0  0  0  0
  6  5  1  0  0  0  0
  7 16  1  0  0  0  0
  8  7  2  0  0  0  0
  9  8  1  0  0  0  0
  9 10  2  0  0  0  0
 10 16  1  0  0  0  0
 11 10  1  0  0  0  0
 11 13  2  0  0  0  0
 12 18  1  0  0  0  0
 12 11  1  0  0  0  0
 13 14  1  0  0  0  0
 14 15  2  0  0  0  0
 16 15  1  0  0  0  0
 17 12  1  0  0  0  0
 19 21  1  0  0  0  0
 19 22  1  0  0  0  0
 20 19  1  0  0  0  0
 23 24  1  0  0  0  0
 26 27  1  0  0  0  0
 26 25  1  0  0  0  0
 27 30  1  0  0  0  0
 27 28  2  1  0  0  0
 27 29  1  0  0  0  0
 31 33  2  6  0  0  0
 31 30  1  0  0  0  0
 31 32  1  0  0  0  0
 34 35  1  0  0  0  0
 34 31  1  0  0  0  0
 35 38  1  0  0  0  0
 35 37  1  0  0  0  0
 36 35  2  0  0  0  0
M  END
>  <minimizedAffinity>
-4.65278292

$$$$

 OpenBabel09122221253D

 38 40  0  0  1  0  0  0  0  0999 V2000
    1.6320   -3.4080    6.3060 C   0  0  0  0  0  1  0  0  0  0  0  0
    2.2070   -3.7230    4.9340 C   0  0  1  0  0  0  0  0  0  0  0  0
    3.7270   -3.9180    4.9320 C   0  0  1  0  0  3  0  0  0  0  0  0
    3.8690   -4.4580    3.5250 C   0  0  2  0  0  3  0  0  0  0  0  0
    2.8150   -5.4030    3.3590 O   0  0  0  0  0  0  0  0  0  0  0  0
    1.7420   -5.0470    4.2580 C   0  0  1  0  0  3  0  0  0  0  0  0
    1.6070   -6.2640    5.1470 C   0  0  0  0  0  0  0  0  0  0  0  0
    2.5690   -6.9810    5.8480 C   0  0  0  0  0  3  0  0  0  0  0  0
    1.9810   -8.1930    6.2770 C   0  0  0  0  0  3  0  0  0  0  0  0
    0.6810   -8.1800    5.8230 C   0  0  0  0  0  0  0  0  0  0  0  0
   -0.3730   -9.1370    5.8440 C   0  0  0  0  0  0  0  0  0  0  0  0
   -0.2160  -10.4050    6.3140 N   0  0  0  0  0  0  0  0  0  0  0  0
   -1.5340   -8.7970    5.3710 N   0  0  0  0  0  0  0  0  0  0  0  0
   -1.6710   -7.5340    4.8370 C   0  0  0  0  0  3  0  0  0  0  0  0
   -0.7630   -6.6140    4.7570 N   0  0  0  0  0  0  0  0  0  0  0  0
    0.4410   -6.9850    5.2120 N   0  0  0  0  0  0  0  0  0  0  0  0
    0.7170  -10.7700    6.4450 H   0  0  0  0  0  0  0  0  0  0  0  0
   -0.9680  -11.0510    6.1310 H   0  0  0  0  0  0  0  0  0  0  0  0
    1.9360   -2.5430    4.0670 N   0  0  0  0  0  4  0  0  0  0  0  0
    0.8820   -2.4510    3.9500 H   0  0  0  0  0  0  0  0  0  0  0  0
    2.2920   -1.6120    4.2000 H   0  0  0  0  0  0  0  0  0  0  0  0
    1.9420   -2.7430    3.0050 H   0  0  0  0  0  0  0  0  0  0  0  0
    4.4670   -2.7150    5.1810 O   0  0  0  0  0  0  0  0  0  0  0  0
    4.6910   -2.3410    4.3030 H   0  0  0  0  0  0  0  0  0  0  0  0
    5.1810   -5.0880    3.1690 C   0  0  0  0  0  2  0  0  0  0  0  0
    5.2430   -5.0140    1.7620 O   0  0  0  0  0  0  0  0  0  0  0  0
    4.3330   -6.2140    0.9090 P   0  0  1  0  0  0  0  0  0  0  0  0
    5.0490   -5.7380   -0.3760 O   0  0  0  0  0  0  0  0  0  0  0  0
    5.0690   -7.2880    1.7570 O   0  0  0  0  0  1  0  0  0  0  0  0
    3.4250   -7.4130    0.0560 O   0  0  0  0  0  0  0  0  0  0  0  0
    3.7600   -8.9730    0.7240 P   0  0  1  0  0  0  0  0  0  0  0  0
    2.2970   -9.4220    0.4170 O   0  0  0  0  0  1  0  0  0  0  0  0
    4.7910   -9.2400   -0.4140 O   0  0  0  0  0  0  0  0  0  0  0  0
    4.0940  -10.5340    1.3930 O   0  0  0  0  0  0  0  0  0  0  0  0
    3.6830  -10.5410    3.0740 P   0  0  0  0  0  0  0  0  0  0  0  0
    5.1690  -10.4310    3.5480 O   0  0  0  0  0  1  0  0  0  0  0  0
    2.9040   -9.2210    2.8660 O   0  0  0  0  0  0  0  0  0  0  0  0
    3.2710  -10.5470    4.7540 O   0  0  0  0  0  1  0  0  0  0  0  0
  2  1  1  1  0  0  0
  3  2  1  0  0  0  0
  3 23  1  6  0  0  0
  4 25  1  1  0  0  0
  4  3  1  0  0  0  0
  5  4  1  0  0  0  0
  5  6  1  0  0  0  0
  6  2  1  0  0  0  0
  6  7  1  1  0  0  0
  7 16  1  0  0  0  0
  7  8  2  0  0  0  0
  8  9  1  0  0  0  0
 10 11  1  0  0  0  0
 10  9  2  0  0  0  0
 11 12  1  0  0  0  0
 12 17  1  0  0  0  0
 13 11  2  0  0  0  0
 14 13  1  0  0  0  0
 15 14  2  0  0  0  0
 15 16  1  0  0  0  0
 16 10  1  0  0  0  0
 18 12  1  0  0  0  0
 19 21  1  0  0  0  0
 19  2  1  0  0  0  0
 20 19  1  0  0  0  0
 22 19  1  0  0  0  0
 24 23  1  0  0  0  0
 26 25  1  0  0  0  0
 27 28  2  6  0  0  0
 27 29  1  0  0  0  0
 27 26  1  0  0  0  0
 30 31  1  0  0  0  0
 30 27  1  0  0  0  0
 31 33  2  6  0  0  0
 31 34  1  0  0  0  0
 32 31  1  0  0  0  0
 34 35  1  0  0  0  0
 35 36  1  0  0  0  0
 35 38  1  0  0  0  0
 37 35  2  0  0  0  0
M  END
>  <minimizedAffinity>
-3.52006054

$$$$

 OpenBabel09122221253D

 38 40  0  0  1  0  0  0  0  0999 V2000
    1.7890  -10.1390    0.0610 C   0  0  0  0  0  1  0  0  0  0  0  0
    3.1040  -10.0890    0.8230 C   0  0  1  0  0  0  0  0  0  0  0  0
    3.5450   -8.6710    1.2020 C   0  0  1  0  0  3  0  0  0  0  0  0
    4.6800   -9.0440    2.1310 C   0  0  2  0  0  3  0  0  0  0  0  0
    4.1890  -10.1090    2.9430 O   0  0  0  0  0  0  0  0  0  0  0  0
    3.1460  -10.7890    2.2130 C   0  0  1  0  0  3  0  0  0  0  0  0
    1.9310  -10.6290    3.1020 C   0  0  0  0  0  0  0  0  0  0  0  0
    0.6090  -11.0050    2.9000 C   0  0  0  0  0  3  0  0  0  0  0  0
   -0.1800  -10.3700    3.8870 C   0  0  0  0  0  3  0  0  0  0  0  0
    0.6840   -9.6240    4.6580 C   0  0  0  0  0  0  0  0  0  0  0  0
    0.4950   -8.7010    5.7250 C   0  0  0  0  0  0  0  0  0  0  0  0
   -0.7350   -8.3060    6.1570 N   0  0  0  0  0  0  0  0  0  0  0  0
    1.5410   -8.1880    6.3000 N   0  0  0  0  0  0  0  0  0  0  0  0
    2.7830   -8.5410    5.8170 C   0  0  0  0  0  3  0  0  0  0  0  0
    3.0430   -9.3520    4.8410 N   0  0  0  0  0  0  0  0  0  0  0  0
    1.9590   -9.8460    4.2290 N   0  0  0  0  0  0  0  0  0  0  0  0
   -1.5410   -8.4830    5.5750 H   0  0  0  0  0  0  0  0  0  0  0  0
   -0.7600   -7.5290    6.7980 H   0  0  0  0  0  0  0  0  0  0  0  0
    4.1550  -10.6230   -0.0880 N   0  0  0  0  0  4  0  0  0  0  0  0
    3.9420  -11.6480   -0.2770 H   0  0  0  0  0  0  0  0  0  0  0  0
    4.4410  -10.2240   -0.9660 H   0  0  0  0  0  0  0  0  0  0  0  0
    5.0430  -10.9940    0.4030 H   0  0  0  0  0  0  0  0  0  0  0  0
    3.9380   -7.8660    0.0820 O   0  0  0  0  0  0  0  0  0  0  0  0
    4.9100   -7.9570    0.0030 H   0  0  0  0  0  0  0  0  0  0  0  0
    5.2330   -7.9540    2.9980 C   0  0  0  0  0  2  0  0  0  0  0  0
    4.4110   -6.8380    2.7360 O   0  0  0  0  0  0  0  0  0  0  0  0
    4.8200   -5.3900    3.5920 P   0  0  1  0  0  0  0  0  0  0  0  0
    4.4910   -4.6170    2.2950 O   0  0  0  0  0  0  0  0  0  0  0  0
    3.6290   -5.6890    4.5440 O   0  0  0  0  0  1  0  0  0  0  0  0
    5.2270   -3.9440    4.4470 O   0  0  0  0  0  0  0  0  0  0  0  0
    3.8290   -3.3500    5.2750 P   0  0  1  0  0  0  0  0  0  0  0  0
    4.6870   -2.2180    5.9200 O   0  0  0  0  0  1  0  0  0  0  0  0
    3.1710   -2.9900    3.9090 O   0  0  0  0  0  0  0  0  0  0  0  0
    2.4300   -2.7560    6.1040 O   0  0  0  0  0  0  0  0  0  0  0  0
    1.6830   -1.5160    5.1560 P   0  0  0  0  0  0  0  0  0  0  0  0
    0.2970   -2.2400    5.1060 O   0  0  0  0  0  1  0  0  0  0  0  0
    1.9220   -0.5180    6.3130 O   0  0  0  0  0  1  0  0  0  0  0  0
    0.9370   -0.2760    4.2090 O   0  0  0  0  0  0  0  0  0  0  0  0
  2  1  1  6  0  0  0
  2  3  1  0  0  0  0
  2  6  1  0  0  0  0
  3 23  1  6  0  0  0
  3  4  1  0  0  0  0
  4  5  1  0  0  0  0
  4 25  1  1  0  0  0
  6  5  1  0  0  0  0
  6  7  1  1  0  0  0
  7 16  1  0  0  0  0
  8  7  2  0  0  0  0
  8  9  1  0  0  0  0
  9 10  2  0  0  0  0
 10 11  1  0  0  0  0
 11 12  1  0  0  0  0
 11 13  2  0  0  0  0
 12 18  1  0  0  0  0
 14 13  1  0  0  0  0
 15 14  2  0  0  0  0
 16 10  1  0  0  0  0
 16 15  1  0  0  0  0
 17 12  1  0  0  0  0
 19 22  1  0  0  0  0
 19  2  1  0  0  0  0
 20 19  1  0  0  0  0
 21 19  1  0  0  0  0
 24 23  1  0  0  0  0
 26 25  1  0  0  0  0
 26 27  1  0  0  0  0
 27 28  2  6  0  0  0
 27 30  1  0  0  0  0
 27 29  1  0  0  0  0
 30 31  1  0  0  0  0
 31 33  2  6  0  0  0
 31 32  1  0  0  0  0
 31 34  1  0  0  0  0
 35 34  1  0  0  0  0
 35 37  1  0  0  0  0
 36 35  1  0  0  0  0
 38 35  2  0  0  0  0
M  END
>  <minimizedAffinity>
-2.74407268

$$$$

 OpenBabel09122221253D

 38 40  0  0  1  0  0  0  0  0999 V2000
    2.2020  -10.5990    1.1450 C   0  0  0  0  0  1  0  0  0  0  0  0
    3.1470  -10.3220    2.3040 C   0  0  1  0  0  0  0  0  0  0  0  0
    3.4520   -8.8340    2.5100 C   0  0  1  0  0  3  0  0  0  0  0  0
    4.1570   -8.9460    3.8450 C   0  0  2  0  0  3  0  0  0  0  0  0
    3.3760   -9.8480    4.6260 O   0  0  0  0  0  0  0  0  0  0  0  0
    2.6570  -10.7190    3.7280 C   0  0  1  0  0  3  0  0  0  0  0  0
    1.2060  -10.4470    4.0580 C   0  0  0  0  0  0  0  0  0  0  0  0
    0.0430  -11.0050    3.5420 C   0  0  0  0  0  3  0  0  0  0  0  0
   -1.0470  -10.2070    3.9610 C   0  0  0  0  0  3  0  0  0  0  0  0
   -0.5150   -9.1870    4.7180 C   0  0  0  0  0  0  0  0  0  0  0  0
   -1.0730   -8.0270    5.3280 C   0  0  0  0  0  0  0  0  0  0  0  0
   -2.3760   -7.6620    5.1760 N   0  0  0  0  0  0  0  0  0  0  0  0
   -0.3010   -7.2650    6.0420 N   0  0  0  0  0  0  0  0  0  0  0  0
    1.0320   -7.6030    6.1400 C   0  0  0  0  0  3  0  0  0  0  0  0
    1.6240   -8.6220    5.6030 N   0  0  0  0  0  0  0  0  0  0  0  0
    0.8300   -9.3820    4.8370 N   0  0  0  0  0  0  0  0  0  0  0  0
   -2.9210   -8.0800    4.4360 H   0  0  0  0  0  0  0  0  0  0  0  0
   -2.6280   -6.7430    5.5050 H   0  0  0  0  0  0  0  0  0  0  0  0
    4.4450  -10.9730    1.9730 N   0  0  0  0  0  4  0  0  0  0  0  0
    4.2910  -12.0250    1.9390 H   0  0  0  0  0  0  0  0  0  0  0  0
    5.0440  -10.7460    1.1960 H   0  0  0  0  0  0  0  0  0  0  0  0
    5.0810  -11.1860    2.8190 H   0  0  0  0  0  0  0  0  0  0  0  0
    4.2490   -8.2550    1.4670 O   0  0  0  0  0  0  0  0  0  0  0  0
    5.1790   -8.3070    1.7690 H   0  0  0  0  0  0  0  0  0  0  0  0
    4.3800   -7.6730    4.6030 C   0  0  0  0  0  2  0  0  0  0  0  0
    4.6620   -6.7110    3.6110 O   0  0  0  0  0  0  0  0  0  0  0  0
    4.8430   -5.0850    4.1750 P   0  0  1  0  0  0  0  0  0  0  0  0
    3.5670   -4.7420    3.3730 O   0  0  0  0  0  0  0  0  0  0  0  0
    4.6330   -5.6250    5.6170 O   0  0  0  0  0  1  0  0  0  0  0  0
    5.0220   -3.4600    4.7390 O   0  0  0  0  0  0  0  0  0  0  0  0
    3.5010   -2.8810    5.3230 P   0  0  1  0  0  0  0  0  0  0  0  0
    3.1710   -4.2990    5.8820 O   0  0  0  0  0  0  0  0  0  0  0  0
    4.2410   -1.9300    6.3120 O   0  0  0  0  0  1  0  0  0  0  0  0
    1.9780   -2.3010    5.9060 O   0  0  0  0  0  0  0  0  0  0  0  0
    1.1950   -1.3870    4.6630 P   0  0  0  0  0  0  0  0  0  0  0  0
    1.3290   -0.0290    5.4270 O   0  0  0  0  0  1  0  0  0  0  0  0
    2.3340   -1.7730    3.6920 O   0  0  0  0  0  1  0  0  0  0  0  0
    0.4110   -0.4750    3.4190 O   0  0  0  0  0  0  0  0  0  0  0  0
  2  1  1  6  0  0  0
  2  3  1  0  0  0  0
  2  6  1  0  0  0  0
  3 23  1  6  0  0  0
  3  4  1  0  0  0  0
  4 25  1  1  0  0  0
  4  5  1  0  0  0  0
  6  7  1  6  0  0  0
  6  5  1  0  0  0  0
  7 16  1  0  0  0  0
  8  9  1  0  0  0  0
  8  7  2  0  0  0  0
  9 10  2  0  0  0  0
 10 16  1  0  0  0  0
 10 11  1  0  0  0  0
 11 13  2  0  0  0  0
 12 11  1  0  0  0  0
 12 18  1  0  0  0  0
 13 14  1  0  0  0  0
 15 14  2  0  0  0  0
 16 15  1  0  0  0  0
 17 12  1  0  0  0  0
 19  2  1  0  0  0  0
 19 22  1  0  0  0  0
 20 19  1  0  0  0  0
 21 19  1  0  0  0  0
 23 24  1  0  0  0  0
 26 27  1  0  0  0  0
 26 25  1  0  0  0  0
 27 28  2  6  0  0  0
 27 30  1  0  0  0  0
 27 29  1  0  0  0  0
 30 31  1  0  0  0  0
 31 32  2  1  0  0  0
 31 34  1  0  0  0  0
 31 33  1  0  0  0  0
 35 36  1  0  0  0  0
 35 34  1  0  0  0  0
 37 35  1  0  0  0  0
 38 35  2  0  0  0  0
M  END
>  <minimizedAffinity>
-2.57868052

$$$$

 OpenBabel09122221253D

 38 40  0  0  1  0  0  0  0  0999 V2000
    2.6430   -3.4650    3.7130 C   0  0  0  0  0  1  0  0  0  0  0  0
    3.5060   -4.4150    4.5290 C   0  0  1  0  0  0  0  0  0  0  0  0
    2.8730   -5.7940    4.7420 C   0  0  1  0  0  3  0  0  0  0  0  0
    4.0830   -6.4950    5.3210 C   0  0  2  0  0  3  0  0  0  0  0  0
    5.1890   -6.0990    4.5130 O   0  0  0  0  0  0  0  0  0  0  0  0
    4.8840   -4.8170    3.9250 C   0  0  1  0  0  3  0  0  0  0  0  0
    4.9310   -5.0900    2.4370 C   0  0  0  0  0  0  0  0  0  0  0  0
    4.7590   -4.2340    1.3560 C   0  0  0  0  0  3  0  0  0  0  0  0
    4.6020   -5.0240    0.1950 C   0  0  0  0  0  3  0  0  0  0  0  0
    4.6810   -6.3380    0.6020 C   0  0  0  0  0  0  0  0  0  0  0  0
    4.5050   -7.5820   -0.0660 C   0  0  0  0  0  0  0  0  0  0  0  0
    4.1080   -7.6790   -1.3650 N   0  0  0  0  0  0  0  0  0  0  0  0
    4.7050   -8.6810    0.5970 N   0  0  0  0  0  0  0  0  0  0  0  0
    5.0440   -8.5800    1.9300 C   0  0  0  0  0  3  0  0  0  0  0  0
    5.2020   -7.4950    2.6180 N   0  0  0  0  0  0  0  0  0  0  0  0
    4.9560   -6.3680    1.9380 N   0  0  0  0  0  0  0  0  0  0  0  0
    3.7050   -6.8710   -1.8180 H   0  0  0  0  0  0  0  0  0  0  0  0
    3.8510   -8.5970   -1.6920 H   0  0  0  0  0  0  0  0  0  0  0  0
    3.6590   -3.8120    5.8820 N   0  0  0  0  0  4  0  0  0  0  0  0
    4.2030   -2.9040    5.7820 H   0  0  0  0  0  0  0  0  0  0  0  0
    2.9200   -3.6320    6.5410 H   0  0  0  0  0  0  0  0  0  0  0  0
    4.5150   -4.1560    6.4430 H   0  0  0  0  0  0  0  0  0  0  0  0
    1.7290   -5.7810    5.6070 O   0  0  0  0  0  0  0  0  0  0  0  0
    2.0580   -5.9880    6.5050 H   0  0  0  0  0  0  0  0  0  0  0  0
    4.0240   -7.9900    5.4090 C   0  0  0  0  0  2  0  0  0  0  0  0
    2.9680   -8.2530    6.3060 O   0  0  0  0  0  0  0  0  0  0  0  0
    1.8510   -9.4770    5.8080 P   0  0  1  0  0  0  0  0  0  0  0  0
    0.7200   -8.5390    6.2880 O   0  0  0  0  0  1  0  0  0  0  0  0
    2.3600   -9.2660    4.3560 O   0  0  0  0  0  0  0  0  0  0  0  0
    0.7340  -10.7000    5.3110 O   0  0  0  0  0  0  0  0  0  0  0  0
   -0.7980   -9.9760    4.9640 P   0  0  1  0  0  0  0  0  0  0  0  0
   -0.8380  -10.7110    3.5890 O   0  0  0  0  0  0  0  0  0  0  0  0
   -1.4360  -10.7550    6.1540 O   0  0  0  0  0  1  0  0  0  0  0  0
   -2.3310   -9.2510    4.6170 O   0  0  0  0  0  0  0  0  0  0  0  0
   -3.5790  -10.1240    5.4370 P   0  0  0  0  0  0  0  0  0  0  0  0
   -4.2480   -8.8350    6.0180 O   0  0  0  0  0  1  0  0  0  0  0  0
   -4.0900  -10.6360    4.0700 O   0  0  0  0  0  0  0  0  0  0  0  0
   -4.8270  -10.9980    6.2560 O   0  0  0  0  0  1  0  0  0  0  0  0
  2  1  1  6  0  0  0
  2  3  1  0  0  0  0
  2 19  1  0  0  0  0
  3  4  1  0  0  0  0
  3 23  1  1  0  0  0
  4 25  1  6  0  0  0
  5  4  1  0  0  0  0
  6  7  1  6  0  0  0
  6  5  1  0  0  0  0
  6  2  1  0  0  0  0
  8  7  2  0  0  0  0
  9 10  2  0  0  0  0
  9  8  1  0  0  0  0
 10 16  1  0  0  0  0
 11 13  2  0  0  0  0
 11 10  1  0  0  0  0
 12 11  1  0  0  0  0
 13 14  1  0  0  0  0
 14 15  2  0  0  0  0
 16  7  1  0  0  0  0
 16 15  1  0  0  0  0
 17 12  1  0  0  0  0
 18 12  1  0  0  0  0
 19 22  1  0  0  0  0
 19 21  1  0  0  0  0
 20 19  1  0  0  0  0
 23 24  1  0  0  0  0
 25 26  1  0  0  0  0
 27 29  2  6  0  0  0
 27 28  1  0  0  0  0
 27 26  1  0  0  0  0
 30 27  1  0  0  0  0
 31 32  2  6  0  0  0
 31 30  1  0  0  0  0
 31 33  1  0  0  0  0
 34 31  1  0  0  0  0
 34 35  1  0  0  0  0
 35 36  1  0  0  0  0
 35 38  1  0  0  0  0
 37 35  2  0  0  0  0
M  END
>  <minimizedAffinity>
-2.27263069

$$$$
