
 OpenBabel09122222393D

 38 40  0  0  1  0  0  0  0  0999 V2000
    1.7890  -10.1390    0.0610 C   0  0  0  0  0  1  0  0  0  0  0  0
    3.1040  -10.0890    0.8230 C   0  0  1  0  0  0  0  0  0  0  0  0
    3.5450   -8.6710    1.2020 C   0  0  1  0  0  3  0  0  0  0  0  0
    4.6800   -9.0440    2.1310 C   0  0  2  0  0  3  0  0  0  0  0  0
    4.1890  -10.1090    2.9430 O   0  0  0  0  0  0  0  0  0  0  0  0
    3.1460  -10.7890    2.2130 C   0  0  1  0  0  3  0  0  0  0  0  0
    1.9310  -10.6290    3.1020 C   0  0  0  0  0  0  0  0  0  0  0  0
    0.6090  -11.0050    2.9000 C   0  0  0  0  0  3  0  0  0  0  0  0
   -0.1800  -10.3700    3.8870 C   0  0  0  0  0  3  0  0  0  0  0  0
    0.6840   -9.6240    4.6580 C   0  0  0  0  0  0  0  0  0  0  0  0
    0.4950   -8.7010    5.7250 C   0  0  0  0  0  0  0  0  0  0  0  0
   -0.7350   -8.3060    6.1570 N   0  0  0  0  0  0  0  0  0  0  0  0
    1.5410   -8.1880    6.3000 N   0  0  0  0  0  0  0  0  0  0  0  0
    2.7830   -8.5410    5.8170 C   0  0  0  0  0  3  0  0  0  0  0  0
    3.0430   -9.3520    4.8410 N   0  0  0  0  0  0  0  0  0  0  0  0
    1.9590   -9.8460    4.2290 N   0  0  0  0  0  0  0  0  0  0  0  0
   -1.5410   -8.4830    5.5750 H   0  0  0  0  0  0  0  0  0  0  0  0
   -0.7600   -7.5290    6.7980 H   0  0  0  0  0  0  0  0  0  0  0  0
    4.1550  -10.6230   -0.0880 N   0  0  0  0  0  4  0  0  0  0  0  0
    3.9420  -11.6480   -0.2770 H   0  0  0  0  0  0  0  0  0  0  0  0
    4.4410  -10.2240   -0.9660 H   0  0  0  0  0  0  0  0  0  0  0  0
    5.0430  -10.9940    0.4030 H   0  0  0  0  0  0  0  0  0  0  0  0
    3.9380   -7.8660    0.0820 O   0  0  0  0  0  0  0  0  0  0  0  0
    4.9100   -7.9570    0.0030 H   0  0  0  0  0  0  0  0  0  0  0  0
    5.2330   -7.9540    2.9980 C   0  0  0  0  0  2  0  0  0  0  0  0
    4.4110   -6.8380    2.7360 O   0  0  0  0  0  0  0  0  0  0  0  0
    4.8200   -5.3900    3.5920 P   0  0  1  0  0  0  0  0  0  0  0  0
    4.4910   -4.6170    2.2950 O   0  0  0  0  0  0  0  0  0  0  0  0
    3.6290   -5.6890    4.5440 O   0  0  0  0  0  1  0  0  0  0  0  0
    5.2270   -3.9440    4.4470 O   0  0  0  0  0  0  0  0  0  0  0  0
    3.8290   -3.3500    5.2750 P   0  0  1  0  0  0  0  0  0  0  0  0
    4.6870   -2.2180    5.9200 O   0  0  0  0  0  1  0  0  0  0  0  0
    3.1710   -2.9900    3.9090 O   0  0  0  0  0  0  0  0  0  0  0  0
    2.4300   -2.7560    6.1040 O   0  0  0  0  0  0  0  0  0  0  0  0
    1.6830   -1.5160    5.1560 P   0  0  0  0  0  0  0  0  0  0  0  0
    0.2970   -2.2400    5.1060 O   0  0  0  0  0  1  0  0  0  0  0  0
    1.9220   -0.5180    6.3130 O   0  0  0  0  0  1  0  0  0  0  0  0
    0.9370   -0.2760    4.2090 O   0  0  0  0  0  0  0  0  0  0  0  0
  2  1  1  6  0  0  0
  2  3  1  0  0  0  0
  2  6  1  0  0  0  0
  3 23  1  6  0  0  0
  3  4  1  0  0  0  0
  4  5  1  0  0  0  0
  4 25  1  1  0  0  0
  6  5  1  0  0  0  0
  6  7  1  1  0  0  0
  7 16  1  0  0  0  0
  8  7  2  0  0  0  0
  8  9  1  0  0  0  0
  9 10  2  0  0  0  0
 10 11  1  0  0  0  0
 11 12  1  0  0  0  0
 11 13  2  0  0  0  0
 12 18  1  0  0  0  0
 14 13  1  0  0  0  0
 15 14  2  0  0  0  0
 16 10  1  0  0  0  0
 16 15  1  0  0  0  0
 17 12  1  0  0  0  0
 19 22  1  0  0  0  0
 19  2  1  0  0  0  0
 20 19  1  0  0  0  0
 21 19  1  0  0  0  0
 24 23  1  0  0  0  0
 26 25  1  0  0  0  0
 26 27  1  0  0  0  0
 27 28  2  6  0  0  0
 27 30  1  0  0  0  0
 27 29  1  0  0  0  0
 30 31  1  0  0  0  0
 31 33  2  6  0  0  0
 31 32  1  0  0  0  0
 31 34  1  0  0  0  0
 35 34  1  0  0  0  0
 35 37  1  0  0  0  0
 36 35  1  0  0  0  0
 38 35  2  0  0  0  0
M  END
>  <minimizedAffinity>
-2.74407268

$$$$
