
 OpenBabel09122222393D

 38 40  0  0  1  0  0  0  0  0999 V2000
    4.0270   -3.0060    2.6910 C   0  0  0  0  0  1  0  0  0  0  0  0
    4.2490   -3.8120    3.9610 C   0  0  1  0  0  0  0  0  0  0  0  0
    2.9700   -4.4420    4.5240 C   0  0  1  0  0  3  0  0  0  0  0  0
    3.6130   -5.3350    5.5630 C   0  0  2  0  0  3  0  0  0  0  0  0
    4.7370   -5.9360    4.9220 O   0  0  0  0  0  0  0  0  0  0  0  0
    5.1680   -5.0640    3.8550 C   0  0  1  0  0  3  0  0  0  0  0  0
    5.0230   -5.9220    2.6170 C   0  0  0  0  0  0  0  0  0  0  0  0
    4.7470   -5.5700    1.3020 C   0  0  0  0  0  3  0  0  0  0  0  0
    4.4240   -6.7510    0.5940 C   0  0  0  0  0  3  0  0  0  0  0  0
    4.5110   -7.7850    1.4980 C   0  0  0  0  0  0  0  0  0  0  0  0
    4.2150   -9.1760    1.4260 C   0  0  0  0  0  0  0  0  0  0  0  0
    3.6590   -9.7620    0.3290 N   0  0  0  0  0  0  0  0  0  0  0  0
    4.4610   -9.9220    2.4610 N   0  0  0  0  0  0  0  0  0  0  0  0
    4.9630   -9.3140    3.5920 C   0  0  0  0  0  3  0  0  0  0  0  0
    5.2390   -8.0580    3.7500 N   0  0  0  0  0  0  0  0  0  0  0  0
    4.9470   -7.2900    2.6920 N   0  0  0  0  0  0  0  0  0  0  0  0
    3.2280   -9.1790   -0.3740 H   0  0  0  0  0  0  0  0  0  0  0  0
    3.3350  -10.7100    0.4390 H   0  0  0  0  0  0  0  0  0  0  0  0
    4.7380   -2.8620    4.9990 N   0  0  0  0  0  4  0  0  0  0  0  0
    5.6880   -2.4950    4.6930 H   0  0  0  0  0  0  0  0  0  0  0  0
    4.2330   -2.0760    5.3730 H   0  0  0  0  0  0  0  0  0  0  0  0
    5.2800   -3.3150    5.8160 H   0  0  0  0  0  0  0  0  0  0  0  0
    2.0400   -3.4890    5.0580 O   0  0  0  0  0  0  0  0  0  0  0  0
    2.2230   -3.4320    6.0180 H   0  0  0  0  0  0  0  0  0  0  0  0
    2.7490   -6.3930    6.1770 C   0  0  0  0  0  2  0  0  0  0  0  0
    2.3540   -7.2060    5.0940 O   0  0  0  0  0  0  0  0  0  0  0  0
    1.7940   -8.7890    5.5100 P   0  0  1  0  0  0  0  0  0  0  0  0
    3.1330   -8.9880    6.2570 O   0  0  0  0  0  0  0  0  0  0  0  0
    0.6480   -8.1080    6.3070 O   0  0  0  0  0  1  0  0  0  0  0  0
    1.2350  -10.3710    5.9270 O   0  0  0  0  0  0  0  0  0  0  0  0
   -0.3520  -10.6100    5.2820 P   0  0  1  0  0  0  0  0  0  0  0  0
   -0.9240   -9.5710    6.2940 O   0  0  0  0  0  1  0  0  0  0  0  0
    0.1130  -10.0220    3.9150 O   0  0  0  0  0  0  0  0  0  0  0  0
   -1.9410  -10.8490    4.6360 O   0  0  0  0  0  0  0  0  0  0  0  0
   -2.8200   -9.3600    4.7040 P   0  0  0  0  0  0  0  0  0  0  0  0
   -3.2310   -9.4100    3.1960 O   0  0  0  0  0  0  0  0  0  0  0  0
   -3.7860  -10.0030    5.7260 O   0  0  0  0  0  1  0  0  0  0  0  0
   -3.6990   -7.8720    4.7740 O   0  0  0  0  0  1  0  0  0  0  0  0
  2  1  1  6  0  0  0
  2  3  1  0  0  0  0
  2 19  1  0  0  0  0
  3 23  1  1  0  0  0
  3  4  1  0  0  0  0
  4 25  1  6  0  0  0
  5  4  1  0  0  0  0
  6  7  1  6  0  0  0
  6  2  1  0  0  0  0
  6  5  1  0  0  0  0
  7 16  1  0  0  0  0
  8  7  2  0  0  0  0
  9  8  1  0  0  0  0
  9 10  2  0  0  0  0
 10 16  1  0  0  0  0
 11 10  1  0  0  0  0
 11 13  2  0  0  0  0
 12 18  1  0  0  0  0
 12 11  1  0  0  0  0
 13 14  1  0  0  0  0
 14 15  2  0  0  0  0
 16 15  1  0  0  0  0
 17 12  1  0  0  0  0
 19 21  1  0  0  0  0
 19 22  1  0  0  0  0
 20 19  1  0  0  0  0
 23 24  1  0  0  0  0
 26 27  1  0  0  0  0
 26 25  1  0  0  0  0
 27 30  1  0  0  0  0
 27 28  2  1  0  0  0
 27 29  1  0  0  0  0
 31 33  2  6  0  0  0
 31 30  1  0  0  0  0
 31 32  1  0  0  0  0
 34 35  1  0  0  0  0
 34 31  1  0  0  0  0
 35 38  1  0  0  0  0
 35 37  1  0  0  0  0
 36 35  2  0  0  0  0
M  END
>  <minimizedAffinity>
-4.65278292

$$$$
