
 OpenBabel09122222393D

 38 40  0  0  1  0  0  0  0  0999 V2000
    2.2020  -10.5990    1.1450 C   0  0  0  0  0  1  0  0  0  0  0  0
    3.1470  -10.3220    2.3040 C   0  0  1  0  0  0  0  0  0  0  0  0
    3.4520   -8.8340    2.5100 C   0  0  1  0  0  3  0  0  0  0  0  0
    4.1570   -8.9460    3.8450 C   0  0  2  0  0  3  0  0  0  0  0  0
    3.3760   -9.8480    4.6260 O   0  0  0  0  0  0  0  0  0  0  0  0
    2.6570  -10.7190    3.7280 C   0  0  1  0  0  3  0  0  0  0  0  0
    1.2060  -10.4470    4.0580 C   0  0  0  0  0  0  0  0  0  0  0  0
    0.0430  -11.0050    3.5420 C   0  0  0  0  0  3  0  0  0  0  0  0
   -1.0470  -10.2070    3.9610 C   0  0  0  0  0  3  0  0  0  0  0  0
   -0.5150   -9.1870    4.7180 C   0  0  0  0  0  0  0  0  0  0  0  0
   -1.0730   -8.0270    5.3280 C   0  0  0  0  0  0  0  0  0  0  0  0
   -2.3760   -7.6620    5.1760 N   0  0  0  0  0  0  0  0  0  0  0  0
   -0.3010   -7.2650    6.0420 N   0  0  0  0  0  0  0  0  0  0  0  0
    1.0320   -7.6030    6.1400 C   0  0  0  0  0  3  0  0  0  0  0  0
    1.6240   -8.6220    5.6030 N   0  0  0  0  0  0  0  0  0  0  0  0
    0.8300   -9.3820    4.8370 N   0  0  0  0  0  0  0  0  0  0  0  0
   -2.9210   -8.0800    4.4360 H   0  0  0  0  0  0  0  0  0  0  0  0
   -2.6280   -6.7430    5.5050 H   0  0  0  0  0  0  0  0  0  0  0  0
    4.4450  -10.9730    1.9730 N   0  0  0  0  0  4  0  0  0  0  0  0
    4.2910  -12.0250    1.9390 H   0  0  0  0  0  0  0  0  0  0  0  0
    5.0440  -10.7460    1.1960 H   0  0  0  0  0  0  0  0  0  0  0  0
    5.0810  -11.1860    2.8190 H   0  0  0  0  0  0  0  0  0  0  0  0
    4.2490   -8.2550    1.4670 O   0  0  0  0  0  0  0  0  0  0  0  0
    5.1790   -8.3070    1.7690 H   0  0  0  0  0  0  0  0  0  0  0  0
    4.3800   -7.6730    4.6030 C   0  0  0  0  0  2  0  0  0  0  0  0
    4.6620   -6.7110    3.6110 O   0  0  0  0  0  0  0  0  0  0  0  0
    4.8430   -5.0850    4.1750 P   0  0  1  0  0  0  0  0  0  0  0  0
    3.5670   -4.7420    3.3730 O   0  0  0  0  0  0  0  0  0  0  0  0
    4.6330   -5.6250    5.6170 O   0  0  0  0  0  1  0  0  0  0  0  0
    5.0220   -3.4600    4.7390 O   0  0  0  0  0  0  0  0  0  0  0  0
    3.5010   -2.8810    5.3230 P   0  0  1  0  0  0  0  0  0  0  0  0
    3.1710   -4.2990    5.8820 O   0  0  0  0  0  0  0  0  0  0  0  0
    4.2410   -1.9300    6.3120 O   0  0  0  0  0  1  0  0  0  0  0  0
    1.9780   -2.3010    5.9060 O   0  0  0  0  0  0  0  0  0  0  0  0
    1.1950   -1.3870    4.6630 P   0  0  0  0  0  0  0  0  0  0  0  0
    1.3290   -0.0290    5.4270 O   0  0  0  0  0  1  0  0  0  0  0  0
    2.3340   -1.7730    3.6920 O   0  0  0  0  0  1  0  0  0  0  0  0
    0.4110   -0.4750    3.4190 O   0  0  0  0  0  0  0  0  0  0  0  0
  2  1  1  6  0  0  0
  2  3  1  0  0  0  0
  2  6  1  0  0  0  0
  3 23  1  6  0  0  0
  3  4  1  0  0  0  0
  4 25  1  1  0  0  0
  4  5  1  0  0  0  0
  6  7  1  6  0  0  0
  6  5  1  0  0  0  0
  7 16  1  0  0  0  0
  8  9  1  0  0  0  0
  8  7  2  0  0  0  0
  9 10  2  0  0  0  0
 10 16  1  0  0  0  0
 10 11  1  0  0  0  0
 11 13  2  0  0  0  0
 12 11  1  0  0  0  0
 12 18  1  0  0  0  0
 13 14  1  0  0  0  0
 15 14  2  0  0  0  0
 16 15  1  0  0  0  0
 17 12  1  0  0  0  0
 19  2  1  0  0  0  0
 19 22  1  0  0  0  0
 20 19  1  0  0  0  0
 21 19  1  0  0  0  0
 23 24  1  0  0  0  0
 26 27  1  0  0  0  0
 26 25  1  0  0  0  0
 27 28  2  6  0  0  0
 27 30  1  0  0  0  0
 27 29  1  0  0  0  0
 30 31  1  0  0  0  0
 31 32  2  1  0  0  0
 31 34  1  0  0  0  0
 31 33  1  0  0  0  0
 35 36  1  0  0  0  0
 35 34  1  0  0  0  0
 37 35  1  0  0  0  0
 38 35  2  0  0  0  0
M  END
>  <minimizedAffinity>
-2.57868052

$$$$
