
 OpenBabel09122222393D

 38 40  0  0  1  0  0  0  0  0999 V2000
    2.6430   -3.4650    3.7130 C   0  0  0  0  0  1  0  0  0  0  0  0
    3.5060   -4.4150    4.5290 C   0  0  1  0  0  0  0  0  0  0  0  0
    2.8730   -5.7940    4.7420 C   0  0  1  0  0  3  0  0  0  0  0  0
    4.0830   -6.4950    5.3210 C   0  0  2  0  0  3  0  0  0  0  0  0
    5.1890   -6.0990    4.5130 O   0  0  0  0  0  0  0  0  0  0  0  0
    4.8840   -4.8170    3.9250 C   0  0  1  0  0  3  0  0  0  0  0  0
    4.9310   -5.0900    2.4370 C   0  0  0  0  0  0  0  0  0  0  0  0
    4.7590   -4.2340    1.3560 C   0  0  0  0  0  3  0  0  0  0  0  0
    4.6020   -5.0240    0.1950 C   0  0  0  0  0  3  0  0  0  0  0  0
    4.6810   -6.3380    0.6020 C   0  0  0  0  0  0  0  0  0  0  0  0
    4.5050   -7.5820   -0.0660 C   0  0  0  0  0  0  0  0  0  0  0  0
    4.1080   -7.6790   -1.3650 N   0  0  0  0  0  0  0  0  0  0  0  0
    4.7050   -8.6810    0.5970 N   0  0  0  0  0  0  0  0  0  0  0  0
    5.0440   -8.5800    1.9300 C   0  0  0  0  0  3  0  0  0  0  0  0
    5.2020   -7.4950    2.6180 N   0  0  0  0  0  0  0  0  0  0  0  0
    4.9560   -6.3680    1.9380 N   0  0  0  0  0  0  0  0  0  0  0  0
    3.7050   -6.8710   -1.8180 H   0  0  0  0  0  0  0  0  0  0  0  0
    3.8510   -8.5970   -1.6920 H   0  0  0  0  0  0  0  0  0  0  0  0
    3.6590   -3.8120    5.8820 N   0  0  0  0  0  4  0  0  0  0  0  0
    4.2030   -2.9040    5.7820 H   0  0  0  0  0  0  0  0  0  0  0  0
    2.9200   -3.6320    6.5410 H   0  0  0  0  0  0  0  0  0  0  0  0
    4.5150   -4.1560    6.4430 H   0  0  0  0  0  0  0  0  0  0  0  0
    1.7290   -5.7810    5.6070 O   0  0  0  0  0  0  0  0  0  0  0  0
    2.0580   -5.9880    6.5050 H   0  0  0  0  0  0  0  0  0  0  0  0
    4.0240   -7.9900    5.4090 C   0  0  0  0  0  2  0  0  0  0  0  0
    2.9680   -8.2530    6.3060 O   0  0  0  0  0  0  0  0  0  0  0  0
    1.8510   -9.4770    5.8080 P   0  0  1  0  0  0  0  0  0  0  0  0
    0.7200   -8.5390    6.2880 O   0  0  0  0  0  1  0  0  0  0  0  0
    2.3600   -9.2660    4.3560 O   0  0  0  0  0  0  0  0  0  0  0  0
    0.7340  -10.7000    5.3110 O   0  0  0  0  0  0  0  0  0  0  0  0
   -0.7980   -9.9760    4.9640 P   0  0  1  0  0  0  0  0  0  0  0  0
   -0.8380  -10.7110    3.5890 O   0  0  0  0  0  0  0  0  0  0  0  0
   -1.4360  -10.7550    6.1540 O   0  0  0  0  0  1  0  0  0  0  0  0
   -2.3310   -9.2510    4.6170 O   0  0  0  0  0  0  0  0  0  0  0  0
   -3.5790  -10.1240    5.4370 P   0  0  0  0  0  0  0  0  0  0  0  0
   -4.2480   -8.8350    6.0180 O   0  0  0  0  0  1  0  0  0  0  0  0
   -4.0900  -10.6360    4.0700 O   0  0  0  0  0  0  0  0  0  0  0  0
   -4.8270  -10.9980    6.2560 O   0  0  0  0  0  1  0  0  0  0  0  0
  2  1  1  6  0  0  0
  2  3  1  0  0  0  0
  2 19  1  0  0  0  0
  3  4  1  0  0  0  0
  3 23  1  1  0  0  0
  4 25  1  6  0  0  0
  5  4  1  0  0  0  0
  6  7  1  6  0  0  0
  6  5  1  0  0  0  0
  6  2  1  0  0  0  0
  8  7  2  0  0  0  0
  9 10  2  0  0  0  0
  9  8  1  0  0  0  0
 10 16  1  0  0  0  0
 11 13  2  0  0  0  0
 11 10  1  0  0  0  0
 12 11  1  0  0  0  0
 13 14  1  0  0  0  0
 14 15  2  0  0  0  0
 16  7  1  0  0  0  0
 16 15  1  0  0  0  0
 17 12  1  0  0  0  0
 18 12  1  0  0  0  0
 19 22  1  0  0  0  0
 19 21  1  0  0  0  0
 20 19  1  0  0  0  0
 23 24  1  0  0  0  0
 25 26  1  0  0  0  0
 27 29  2  6  0  0  0
 27 28  1  0  0  0  0
 27 26  1  0  0  0  0
 30 27  1  0  0  0  0
 31 32  2  6  0  0  0
 31 30  1  0  0  0  0
 31 33  1  0  0  0  0
 34 31  1  0  0  0  0
 34 35  1  0  0  0  0
 35 36  1  0  0  0  0
 35 38  1  0  0  0  0
 37 35  2  0  0  0  0
M  END
>  <minimizedAffinity>
-2.27263069

$$$$
