
 OpenBabel09122222393D

 36 40  0  0  1  0  0  0  0  0999 V2000
    9.3640    5.9990   -1.3070 O   0  0  0  0  0  0  0  0  0  0  0  0
    9.8600    6.3830   -0.2410 C   0  0  0  0  0  0  0  0  0  0  0  0
   10.0640    7.8510   -0.0300 C   0  0  0  0  0  0  0  0  0  0  0  0
   10.5880    8.2700    1.1370 C   0  0  1  0  0  3  0  0  0  0  0  0
   10.8850    7.3370    2.2440 C   0  0  0  0  0  0  0  0  0  0  0  0
   11.2720    7.7770    3.5240 C   0  0  0  0  0  3  0  0  0  0  0  0
   11.5590    6.8650    4.5430 C   0  0  0  0  0  3  0  0  0  0  0  0
   11.4480    5.5010    4.3060 C   0  0  0  0  0  3  0  0  0  0  0  0
   11.0330    5.0490    3.0550 C   0  0  0  0  0  3  0  0  0  0  0  0
   10.7410    5.9570    2.0230 C   0  0  0  0  0  0  0  0  0  0  0  0
   10.2680    5.5110    0.7630 N   0  0  0  0  0  0  0  0  0  0  0  0
    9.6800    8.7680   -1.1700 C   0  0  0  0  0  0  0  0  0  0  0  0
    9.8730   10.0610   -1.0750 N   0  0  0  0  0  0  0  0  0  0  0  0
    9.5110   11.1650   -2.1800 S   0  0  0  0  0  0  0  0  0  0  0  0
    8.4250   11.9890   -1.6870 O   0  0  0  0  0  0  0  0  0  0  0  0
   10.7330   11.7950   -2.6390 O   0  0  0  0  0  0  0  0  0  0  0  0
    8.8630   10.3040   -3.5720 C   0  0  0  0  0  0  0  0  0  0  0  0
    8.4930   11.0220   -4.7150 C   0  0  0  0  0  3  0  0  0  0  0  0
    7.9800   10.3340   -5.8110 C   0  0  0  0  0  3  0  0  0  0  0  0
    7.8440    8.9470   -5.7550 C   0  0  0  0  0  3  0  0  0  0  0  0
    8.2210    8.2460   -4.6050 C   0  0  0  0  0  3  0  0  0  0  0  0
    8.7390    8.9240   -3.4960 C   0  0  0  0  0  0  0  0  0  0  0  0
    9.1190    8.2340   -2.3520 N   0  0  0  0  0  0  0  0  0  0  0  0
   10.2920   10.4180   -0.2220 H   0  0  0  0  0  0  0  0  0  0  0  0
    9.0170    7.2170   -2.3500 H   0  0  0  0  0  0  0  0  0  0  0  0
   10.8960    9.6110    1.3300 O   0  0  0  0  0  0  0  0  0  0  0  0
   11.6440    9.6720    1.9540 H   0  0  0  0  0  0  0  0  0  0  0  0
   10.0930    4.1150    0.5390 N   0  0  0  0  0  0  0  0  0  0  0  0
    9.4000    4.0100   -0.2110 H   0  0  0  0  0  0  0  0  0  0  0  0
   11.3370    3.4840    0.0780 C   0  0  0  0  0  2  0  0  0  0  0  0
   11.0570    2.1190   -0.5010 C   0  0  0  0  0  0  0  0  0  0  0  0
   11.6270    1.7350   -1.7240 C   0  0  0  0  0  3  0  0  0  0  0  0
   11.3840    0.4650   -2.2510 C   0  0  0  0  0  3  0  0  0  0  0  0
   10.5730   -0.4330   -1.5600 C   0  0  0  0  0  3  0  0  0  0  0  0
   10.0070   -0.0650   -0.3410 C   0  0  0  0  0  3  0  0  0  0  0  0
   10.2500    1.2030    0.1890 C   0  0  0  0  0  3  0  0  0  0  0  0
  1  2  2  0  0  0  0
  2  3  1  0  0  0  0
  2 11  1  0  0  0  0
  3  4  1  0  0  0  0
  4 26  1  6  0  0  0
  4  5  1  0  0  0  0
  5  6  1  0  0  0  0
  6  7  2  0  0  0  0
  8  7  1  0  0  0  0
  9  8  2  0  0  0  0
 10  5  2  0  0  0  0
 10  9  1  0  0  0  0
 11 10  1  0  0  0  0
 12 13  1  0  0  0  0
 12  3  2  0  0  0  0
 13 24  1  0  0  0  0
 14 15  2  0  0  0  0
 14 13  1  0  0  0  0
 16 14  2  0  0  0  0
 17 22  1  0  0  0  0
 17 14  1  0  0  0  0
 18 17  2  0  0  0  0
 19 20  2  0  0  0  0
 19 18  1  0  0  0  0
 20 21  1  0  0  0  0
 21 22  2  0  0  0  0
 22 23  1  0  0  0  0
 23 25  1  0  0  0  0
 23 12  1  0  0  0  0
 26 27  1  0  0  0  0
 28 11  1  0  0  0  0
 29 28  1  0  0  0  0
 30 28  1  0  0  0  0
 31 30  1  0  0  0  0
 31 36  1  0  0  0  0
 32 31  2  0  0  0  0
 33 32  1  0  0  0  0
 33 34  2  0  0  0  0
 34 35  1  0  0  0  0
 35 36  2  0  0  0  0
M  END
>  <minimizedAffinity>
-5.42698336

$$$$
