
 OpenBabel09122222393D

 36 40  0  0  1  0  0  0  0  0999 V2000
    9.2350    4.0840   -0.6020 O   0  0  0  0  0  0  0  0  0  0  0  0
    9.7590    4.3620    0.4840 C   0  0  0  0  0  0  0  0  0  0  0  0
   10.3600    3.2570    1.2950 C   0  0  0  0  0  0  0  0  0  0  0  0
   10.9440    3.5610    2.4700 C   0  0  0  0  0  0  0  0  0  0  0  0
   11.0860    4.9550    2.9380 C   0  0  0  0  0  0  0  0  0  0  0  0
   11.8410    5.3010    4.0750 C   0  0  0  0  0  3  0  0  0  0  0  0
   11.9410    6.6290    4.4960 C   0  0  0  0  0  3  0  0  0  0  0  0
   11.3050    7.6350    3.7800 C   0  0  0  0  0  3  0  0  0  0  0  0
   10.5830    7.3150    2.6320 C   0  0  0  0  0  3  0  0  0  0  0  0
   10.4750    5.9830    2.1990 C   0  0  0  0  0  0  0  0  0  0  0  0
    9.7870    5.6510    1.0040 N   0  0  0  0  0  0  0  0  0  0  0  0
   10.2460    1.8550    0.7380 C   0  0  1  0  0  3  0  0  0  0  0  0
   10.6590    1.5890   -0.4770 N   0  0  0  0  0  0  0  0  0  0  0  0
   10.5970    0.1680   -1.2180 S   0  0  0  0  0  0  0  0  0  0  0  0
    9.6390    0.2420   -2.3030 O   0  0  0  0  0  0  0  0  0  0  0  0
   11.9480   -0.2850   -1.4870 O   0  0  0  0  0  0  0  0  0  0  0  0
    9.9260   -0.9820   -0.0660 C   0  0  0  0  0  0  0  0  0  0  0  0
    9.7900   -2.3250   -0.4340 C   0  0  0  0  0  3  0  0  0  0  0  0
    9.2570   -3.2280    0.4810 C   0  0  0  0  0  3  0  0  0  0  0  0
    8.8700   -2.7840    1.7460 C   0  0  0  0  0  3  0  0  0  0  0  0
    9.0160   -1.4370    2.0960 C   0  0  0  0  0  3  0  0  0  0  0  0
    9.5500   -0.5190    1.1870 C   0  0  0  0  0  0  0  0  0  0  0  0
    9.7010    0.8190    1.5290 N   0  0  0  0  0  0  0  0  0  0  0  0
   11.0610    2.3470   -1.0190 H   0  0  0  0  0  0  0  0  0  0  0  0
    9.4180    1.1080    2.4680 H   0  0  0  0  0  0  0  0  0  0  0  0
   11.4140    2.5550    3.3040 O   0  0  0  0  0  0  0  0  0  0  0  0
   11.3580    2.8630    4.2280 H   0  0  0  0  0  0  0  0  0  0  0  0
    9.1880    6.6890    0.2350 N   0  0  0  0  0  0  0  0  0  0  0  0
    8.8450    7.3990    0.8920 H   0  0  0  0  0  0  0  0  0  0  0  0
   10.1680    7.3430   -0.6430 C   0  0  0  0  0  2  0  0  0  0  0  0
    9.8550    8.8110   -0.7880 C   0  0  0  0  0  0  0  0  0  0  0  0
   10.2890    9.5240   -1.9160 C   0  0  0  0  0  3  0  0  0  0  0  0
    9.9830   10.8780   -2.0600 C   0  0  0  0  0  3  0  0  0  0  0  0
    9.2380   11.5330   -1.0800 C   0  0  0  0  0  3  0  0  0  0  0  0
    8.7960   10.8340    0.0420 C   0  0  0  0  0  3  0  0  0  0  0  0
    9.0990    9.4790    0.1860 C   0  0  0  0  0  3  0  0  0  0  0  0
  1  2  2  0  0  0  0
  2 11  1  0  0  0  0
  2  3  1  0  0  0  0
  3  4  2  0  0  0  0
  4  5  1  0  0  0  0
  4 26  1  0  0  0  0
  5  6  1  0  0  0  0
  6  7  2  0  0  0  0
  8  7  1  0  0  0  0
  9  8  2  0  0  0  0
 10  9  1  0  0  0  0
 10  5  2  0  0  0  0
 11 10  1  0  0  0  0
 12  3  1  1  0  0  0
 12 23  1  0  0  0  0
 13 12  1  0  0  0  0
 14 13  1  0  0  0  0
 14 17  1  0  0  0  0
 15 14  2  0  0  0  0
 16 14  2  0  0  0  0
 17 22  1  0  0  0  0
 18 17  2  0  0  0  0
 18 19  1  0  0  0  0
 19 20  2  0  0  0  0
 20 21  1  0  0  0  0
 22 23  1  0  0  0  0
 22 21  2  0  0  0  0
 23 25  1  0  0  0  0
 24 13  1  0  0  0  0
 26 27  1  0  0  0  0
 28 29  1  0  0  0  0
 28 11  1  0  0  0  0
 30 28  1  0  0  0  0
 31 30  1  0  0  0  0
 31 36  1  0  0  0  0
 32 31  2  0  0  0  0
 33 32  1  0  0  0  0
 33 34  2  0  0  0  0
 34 35  1  0  0  0  0
 35 36  2  0  0  0  0
M  END
>  <minimizedAffinity>
-7.0505271

$$$$
