
 OpenBabel09122222393D

 36 40  0  0  1  0  0  0  0  0999 V2000
    9.3190    6.0850   -0.9210 O   0  0  0  0  0  0  0  0  0  0  0  0
    9.8470    6.3560    0.1640 C   0  0  0  0  0  0  0  0  0  0  0  0
   10.2610    7.7700    0.4290 C   0  0  0  0  0  0  0  0  0  0  0  0
   10.8200    8.0690    1.6170 C   0  0  0  0  0  0  0  0  0  0  0  0
   10.9580    7.0670    2.6940 C   0  0  0  0  0  0  0  0  0  0  0  0
   11.3820    7.4030    3.9940 C   0  0  0  0  0  3  0  0  0  0  0  0
   11.5140    6.4250    4.9830 C   0  0  0  0  0  3  0  0  0  0  0  0
   11.2080    5.1010    4.6970 C   0  0  0  0  0  3  0  0  0  0  0  0
   10.7530    4.7570    3.4260 C   0  0  0  0  0  3  0  0  0  0  0  0
   10.6160    5.7300    2.4230 C   0  0  0  0  0  0  0  0  0  0  0  0
   10.1040    5.4010    1.1420 N   0  0  0  0  0  0  0  0  0  0  0  0
   10.0360    8.7710   -0.6830 C   0  0  1  0  0  3  0  0  0  0  0  0
   10.5430    8.5640   -1.8730 N   0  0  0  0  0  0  0  0  0  0  0  0
   10.4100    9.5270   -3.1490 S   0  0  0  0  0  0  0  0  0  0  0  0
   11.7100   10.0930   -3.4520 O   0  0  0  0  0  0  0  0  0  0  0  0
    9.6720    8.8370   -4.1890 O   0  0  0  0  0  0  0  0  0  0  0  0
    9.3990   10.8840   -2.6640 C   0  0  0  0  0  0  0  0  0  0  0  0
    9.0820   11.8750   -3.6000 C   0  0  0  0  0  3  0  0  0  0  0  0
    8.2830   12.9460   -3.2090 C   0  0  0  0  0  3  0  0  0  0  0  0
    7.8130   13.0150   -1.8970 C   0  0  0  0  0  3  0  0  0  0  0  0
    8.1410   12.0140   -0.9760 C   0  0  0  0  0  3  0  0  0  0  0  0
    8.9410   10.9320   -1.3550 C   0  0  0  0  0  0  0  0  0  0  0  0
    9.2670    9.9320   -0.4470 N   0  0  0  0  0  0  0  0  0  0  0  0
   11.0780    7.7140   -2.0220 H   0  0  0  0  0  0  0  0  0  0  0  0
    8.8960   10.0090    0.5020 H   0  0  0  0  0  0  0  0  0  0  0  0
   11.3180    9.3430    1.8610 O   0  0  0  0  0  0  0  0  0  0  0  0
   12.0560    9.2730    2.4950 H   0  0  0  0  0  0  0  0  0  0  0  0
    9.7310    4.0550    0.8670 N   0  0  0  0  0  0  0  0  0  0  0  0
    9.0160    4.0790    0.1300 H   0  0  0  0  0  0  0  0  0  0  0  0
   10.8650    3.2750    0.3520 C   0  0  0  0  0  2  0  0  0  0  0  0
   10.4820    1.8250    0.1870 C   0  0  0  0  0  0  0  0  0  0  0  0
   10.8040    1.1330   -0.9890 C   0  0  0  0  0  3  0  0  0  0  0  0
   10.4670   -0.2130   -1.1340 C   0  0  0  0  0  3  0  0  0  0  0  0
    9.8080   -0.8830   -0.1050 C   0  0  0  0  0  3  0  0  0  0  0  0
    9.4890   -0.2070    1.0720 C   0  0  0  0  0  3  0  0  0  0  0  0
    9.8260    1.1390    1.2200 C   0  0  0  0  0  3  0  0  0  0  0  0
  1  2  2  0  0  0  0
  2  3  1  0  0  0  0
  2 11  1  0  0  0  0
  3  4  2  0  0  0  0
  4 26  1  0  0  0  0
  4  5  1  0  0  0  0
  5  6  1  0  0  0  0
  6  7  2  0  0  0  0
  8  7  1  0  0  0  0
  9  8  2  0  0  0  0
 10  5  2  0  0  0  0
 10  9  1  0  0  0  0
 11 10  1  0  0  0  0
 12 23  1  0  0  0  0
 12  3  1  6  0  0  0
 13 12  1  0  0  0  0
 14 17  1  0  0  0  0
 14 13  1  0  0  0  0
 15 14  2  0  0  0  0
 16 14  2  0  0  0  0
 17 22  1  0  0  0  0
 18 19  1  0  0  0  0
 18 17  2  0  0  0  0
 19 20  2  0  0  0  0
 20 21  1  0  0  0  0
 22 21  2  0  0  0  0
 22 23  1  0  0  0  0
 23 25  1  0  0  0  0
 24 13  1  0  0  0  0
 26 27  1  0  0  0  0
 28 11  1  0  0  0  0
 29 28  1  0  0  0  0
 30 28  1  0  0  0  0
 31 30  1  0  0  0  0
 31 36  1  0  0  0  0
 32 31  2  0  0  0  0
 33 32  1  0  0  0  0
 33 34  2  0  0  0  0
 34 35  1  0  0  0  0
 35 36  2  0  0  0  0
M  END
>  <minimizedAffinity>
-6.86435795

$$$$
