
 OpenBabel09122222393D

 36 40  0  0  1  0  0  0  0  0999 V2000
    8.7490    1.1230    2.3900 O   0  0  0  0  0  0  0  0  0  0  0  0
    9.3560    0.5840    1.4570 C   0  0  0  0  0  0  0  0  0  0  0  0
   10.2710    1.4200    0.6180 C   0  0  0  0  0  0  0  0  0  0  0  0
   10.9450    0.8310   -0.3880 C   0  0  0  0  0  0  0  0  0  0  0  0
   10.8770   -0.6250   -0.6320 C   0  0  0  0  0  0  0  0  0  0  0  0
   11.7030   -1.2780   -1.5660 C   0  0  0  0  0  3  0  0  0  0  0  0
   11.6000   -2.6550   -1.7800 C   0  0  0  0  0  3  0  0  0  0  0  0
   10.6840   -3.4050   -1.0530 C   0  0  0  0  0  3  0  0  0  0  0  0
    9.8840   -2.7800   -0.0990 C   0  0  0  0  0  3  0  0  0  0  0  0
    9.9780   -1.3970    0.1250 C   0  0  0  0  0  0  0  0  0  0  0  0
    9.2060   -0.7590    1.1300 N   0  0  0  0  0  0  0  0  0  0  0  0
   10.3550    2.8930    0.9520 C   0  0  1  0  0  3  0  0  0  0  0  0
   10.1550    3.7960    0.0240 N   0  0  0  0  0  0  0  0  0  0  0  0
   10.2210    5.3880    0.2090 S   0  0  0  0  0  0  0  0  0  0  0  0
   11.3700    5.9010   -0.5120 O   0  0  0  0  0  0  0  0  0  0  0  0
    8.9090    5.9500   -0.0450 O   0  0  0  0  0  0  0  0  0  0  0  0
   10.5520    5.6930    1.9110 C   0  0  0  0  0  0  0  0  0  0  0  0
   10.6280    7.0120    2.3720 C   0  0  0  0  0  3  0  0  0  0  0  0
   10.8910    7.2450    3.7190 C   0  0  0  0  0  3  0  0  0  0  0  0
   11.0720    6.1660    4.5850 C   0  0  0  0  0  3  0  0  0  0  0  0
   10.9910    4.8540    4.1050 C   0  0  0  0  0  3  0  0  0  0  0  0
   10.7270    4.6050    2.7550 C   0  0  0  0  0  0  0  0  0  0  0  0
   10.6410    3.3050    2.2730 N   0  0  0  0  0  0  0  0  0  0  0  0
    9.9350    3.4750   -0.9140 H   0  0  0  0  0  0  0  0  0  0  0  0
   10.7680    2.5390    2.9370 H   0  0  0  0  0  0  0  0  0  0  0  0
   11.7170    1.5890   -1.2590 O   0  0  0  0  0  0  0  0  0  0  0  0
   11.7330    1.1470   -2.1280 H   0  0  0  0  0  0  0  0  0  0  0  0
    8.3120   -1.5370    1.9190 N   0  0  0  0  0  0  0  0  0  0  0  0
    7.4500   -1.6590    1.3760 H   0  0  0  0  0  0  0  0  0  0  0  0
    8.8560   -2.8760    2.1860 C   0  0  0  0  0  2  0  0  0  0  0  0
    7.7590   -3.9110    2.1490 C   0  0  0  0  0  0  0  0  0  0  0  0
    6.6380   -3.7900    2.9830 C   0  0  0  0  0  3  0  0  0  0  0  0
    5.6130   -4.7360    2.9360 C   0  0  0  0  0  3  0  0  0  0  0  0
    5.6970   -5.8120    2.0540 C   0  0  0  0  0  3  0  0  0  0  0  0
    6.8030   -5.9390    1.2150 C   0  0  0  0  0  3  0  0  0  0  0  0
    7.8270   -4.9930    1.2590 C   0  0  0  0  0  3  0  0  0  0  0  0
  2  1  2  0  0  0  0
  3  2  1  0  0  0  0
  4  3  2  0  0  0  0
  5  4  1  0  0  0  0
  5 10  1  0  0  0  0
  6  5  2  0  0  0  0
  7  6  1  0  0  0  0
  7  8  2  0  0  0  0
  8  9  1  0  0  0  0
  9 10  2  0  0  0  0
 10 11  1  0  0  0  0
 11  2  1  0  0  0  0
 11 28  1  0  0  0  0
 12  3  1  1  0  0  0
 12 23  1  0  0  0  0
 13 14  1  0  0  0  0
 13 12  1  0  0  0  0
 14 17  1  0  0  0  0
 15 14  2  0  0  0  0
 16 14  2  0  0  0  0
 17 18  2  0  0  0  0
 17 22  1  0  0  0  0
 18 19  1  0  0  0  0
 19 20  2  0  0  0  0
 21 20  1  0  0  0  0
 22 21  2  0  0  0  0
 23 22  1  0  0  0  0
 23 25  1  0  0  0  0
 24 13  1  0  0  0  0
 26  4  1  0  0  0  0
 27 26  1  0  0  0  0
 28 30  1  0  0  0  0
 29 28  1  0  0  0  0
 31 30  1  0  0  0  0
 31 32  1  0  0  0  0
 33 32  2  0  0  0  0
 34 33  1  0  0  0  0
 35 36  1  0  0  0  0
 35 34  2  0  0  0  0
 36 31  2  0  0  0  0
M  END
>  <minimizedAffinity>
-6.76188803

$$$$
