
 OpenBabel09122220473D

 36 40  0  0  1  0  0  0  0  0999 V2000
    9.2350    4.0840   -0.6020 O   0  0  0  0  0  0  0  0  0  0  0  0
    9.7590    4.3620    0.4840 C   0  0  0  0  0  0  0  0  0  0  0  0
   10.3600    3.2570    1.2950 C   0  0  0  0  0  0  0  0  0  0  0  0
   10.9440    3.5610    2.4700 C   0  0  0  0  0  0  0  0  0  0  0  0
   11.0860    4.9550    2.9380 C   0  0  0  0  0  0  0  0  0  0  0  0
   11.8410    5.3010    4.0750 C   0  0  0  0  0  3  0  0  0  0  0  0
   11.9410    6.6290    4.4960 C   0  0  0  0  0  3  0  0  0  0  0  0
   11.3050    7.6350    3.7800 C   0  0  0  0  0  3  0  0  0  0  0  0
   10.5830    7.3150    2.6320 C   0  0  0  0  0  3  0  0  0  0  0  0
   10.4750    5.9830    2.1990 C   0  0  0  0  0  0  0  0  0  0  0  0
    9.7870    5.6510    1.0040 N   0  0  0  0  0  0  0  0  0  0  0  0
   10.2460    1.8550    0.7380 C   0  0  1  0  0  3  0  0  0  0  0  0
   10.6590    1.5890   -0.4770 N   0  0  0  0  0  0  0  0  0  0  0  0
   10.5970    0.1680   -1.2180 S   0  0  0  0  0  0  0  0  0  0  0  0
    9.6390    0.2420   -2.3030 O   0  0  0  0  0  0  0  0  0  0  0  0
   11.9480   -0.2850   -1.4870 O   0  0  0  0  0  0  0  0  0  0  0  0
    9.9260   -0.9820   -0.0660 C   0  0  0  0  0  0  0  0  0  0  0  0
    9.7900   -2.3250   -0.4340 C   0  0  0  0  0  3  0  0  0  0  0  0
    9.2570   -3.2280    0.4810 C   0  0  0  0  0  3  0  0  0  0  0  0
    8.8700   -2.7840    1.7460 C   0  0  0  0  0  3  0  0  0  0  0  0
    9.0160   -1.4370    2.0960 C   0  0  0  0  0  3  0  0  0  0  0  0
    9.5500   -0.5190    1.1870 C   0  0  0  0  0  0  0  0  0  0  0  0
    9.7010    0.8190    1.5290 N   0  0  0  0  0  0  0  0  0  0  0  0
   11.0610    2.3470   -1.0190 H   0  0  0  0  0  0  0  0  0  0  0  0
    9.4180    1.1080    2.4680 H   0  0  0  0  0  0  0  0  0  0  0  0
   11.4140    2.5550    3.3040 O   0  0  0  0  0  0  0  0  0  0  0  0
   11.3580    2.8630    4.2280 H   0  0  0  0  0  0  0  0  0  0  0  0
    9.1880    6.6890    0.2350 N   0  0  0  0  0  0  0  0  0  0  0  0
    8.8450    7.3990    0.8920 H   0  0  0  0  0  0  0  0  0  0  0  0
   10.1680    7.3430   -0.6430 C   0  0  0  0  0  2  0  0  0  0  0  0
    9.8550    8.8110   -0.7880 C   0  0  0  0  0  0  0  0  0  0  0  0
   10.2890    9.5240   -1.9160 C   0  0  0  0  0  3  0  0  0  0  0  0
    9.9830   10.8780   -2.0600 C   0  0  0  0  0  3  0  0  0  0  0  0
    9.2380   11.5330   -1.0800 C   0  0  0  0  0  3  0  0  0  0  0  0
    8.7960   10.8340    0.0420 C   0  0  0  0  0  3  0  0  0  0  0  0
    9.0990    9.4790    0.1860 C   0  0  0  0  0  3  0  0  0  0  0  0
  1  2  2  0  0  0  0
  2 11  1  0  0  0  0
  2  3  1  0  0  0  0
  3  4  2  0  0  0  0
  4  5  1  0  0  0  0
  4 26  1  0  0  0  0
  5  6  1  0  0  0  0
  6  7  2  0  0  0  0
  8  7  1  0  0  0  0
  9  8  2  0  0  0  0
 10  9  1  0  0  0  0
 10  5  2  0  0  0  0
 11 10  1  0  0  0  0
 12  3  1  1  0  0  0
 12 23  1  0  0  0  0
 13 12  1  0  0  0  0
 14 13  1  0  0  0  0
 14 17  1  0  0  0  0
 15 14  2  0  0  0  0
 16 14  2  0  0  0  0
 17 22  1  0  0  0  0
 18 17  2  0  0  0  0
 18 19  1  0  0  0  0
 19 20  2  0  0  0  0
 20 21  1  0  0  0  0
 22 23  1  0  0  0  0
 22 21  2  0  0  0  0
 23 25  1  0  0  0  0
 24 13  1  0  0  0  0
 26 27  1  0  0  0  0
 28 29  1  0  0  0  0
 28 11  1  0  0  0  0
 30 28  1  0  0  0  0
 31 30  1  0  0  0  0
 31 36  1  0  0  0  0
 32 31  2  0  0  0  0
 33 32  1  0  0  0  0
 33 34  2  0  0  0  0
 34 35  1  0  0  0  0
 35 36  2  0  0  0  0
M  END
>  <minimizedAffinity>
-7.0505271

$$$$

 OpenBabel09122220473D

 36 40  0  0  1  0  0  0  0  0999 V2000
   10.4360    2.7060   -0.8190 O   0  0  0  0  0  0  0  0  0  0  0  0
   10.4050    2.9820    0.3870 C   0  0  0  0  0  0  0  0  0  0  0  0
   10.2610    1.8660    1.3750 C   0  0  0  0  0  0  0  0  0  0  0  0
   10.2430    2.1640    2.6880 C   0  0  0  0  0  0  0  0  0  0  0  0
   10.4490    3.5410    3.1840 C   0  0  0  0  0  0  0  0  0  0  0  0
   10.6030    3.8410    4.5500 C   0  0  0  0  0  3  0  0  0  0  0  0
   10.7810    5.1570    4.9830 C   0  0  0  0  0  3  0  0  0  0  0  0
   10.8260    6.1930    4.0590 C   0  0  0  0  0  3  0  0  0  0  0  0
   10.7110    5.9100    2.7000 C   0  0  0  0  0  3  0  0  0  0  0  0
   10.5320    4.5900    2.2520 C   0  0  0  0  0  0  0  0  0  0  0  0
   10.4660    4.2840    0.8690 N   0  0  0  0  0  0  0  0  0  0  0  0
   10.1220    0.4680    0.8160 C   0  0  1  0  0  3  0  0  0  0  0  0
   10.6740    0.1530   -0.3300 N   0  0  0  0  0  0  0  0  0  0  0  0
   10.6100   -1.2720   -1.0640 S   0  0  0  0  0  0  0  0  0  0  0  0
    9.8130   -1.1480   -2.2690 O   0  0  0  0  0  0  0  0  0  0  0  0
   11.9480   -1.8230   -1.1460 O   0  0  0  0  0  0  0  0  0  0  0  0
    9.7090   -2.3520   -0.0050 C   0  0  0  0  0  0  0  0  0  0  0  0
    9.5270   -3.6880   -0.3800 C   0  0  0  0  0  3  0  0  0  0  0  0
    8.8130   -4.5370    0.4620 C   0  0  0  0  0  3  0  0  0  0  0  0
    8.2930   -4.0460    1.6590 C   0  0  0  0  0  3  0  0  0  0  0  0
    8.4870   -2.7070    2.0170 C   0  0  0  0  0  3  0  0  0  0  0  0
    9.2030   -1.8440    1.1830 C   0  0  0  0  0  0  0  0  0  0  0  0
    9.4030   -0.5140    1.5330 N   0  0  0  0  0  0  0  0  0  0  0  0
   11.1990    0.8720   -0.8180 H   0  0  0  0  0  0  0  0  0  0  0  0
    9.0180   -0.1920    2.4230 H   0  0  0  0  0  0  0  0  0  0  0  0
   10.0010    1.1740    3.6310 O   0  0  0  0  0  0  0  0  0  0  0  0
    9.5690    1.5810    4.4060 H   0  0  0  0  0  0  0  0  0  0  0  0
   10.5760    5.3380   -0.0830 N   0  0  0  0  0  0  0  0  0  0  0  0
   10.8410    4.9150   -0.9800 H   0  0  0  0  0  0  0  0  0  0  0  0
    9.2900    6.0200   -0.2820 C   0  0  0  0  0  2  0  0  0  0  0  0
    9.4950    7.5070   -0.4340 C   0  0  0  0  0  0  0  0  0  0  0  0
    8.7960    8.4080    0.3830 C   0  0  0  0  0  3  0  0  0  0  0  0
    9.0000    9.7830    0.2570 C   0  0  0  0  0  3  0  0  0  0  0  0
    9.9060   10.2710   -0.6830 C   0  0  0  0  0  3  0  0  0  0  0  0
   10.6120    9.3850   -1.4950 C   0  0  0  0  0  3  0  0  0  0  0  0
   10.4110    8.0100   -1.3690 C   0  0  0  0  0  3  0  0  0  0  0  0
  1  2  2  0  0  0  0
  2 11  1  0  0  0  0
  2  3  1  0  0  0  0
  3  4  2  0  0  0  0
  4  5  1  0  0  0  0
  4 26  1  0  0  0  0
  5  6  1  0  0  0  0
  6  7  2  0  0  0  0
  8  7  1  0  0  0  0
  9  8  2  0  0  0  0
 10  9  1  0  0  0  0
 10  5  2  0  0  0  0
 11 10  1  0  0  0  0
 12  3  1  1  0  0  0
 12 23  1  0  0  0  0
 13 12  1  0  0  0  0
 14 13  1  0  0  0  0
 14 17  1  0  0  0  0
 15 14  2  0  0  0  0
 16 14  2  0  0  0  0
 17 22  1  0  0  0  0
 18 17  2  0  0  0  0
 18 19  1  0  0  0  0
 19 20  2  0  0  0  0
 20 21  1  0  0  0  0
 22 23  1  0  0  0  0
 22 21  2  0  0  0  0
 23 25  1  0  0  0  0
 24 13  1  0  0  0  0
 26 27  1  0  0  0  0
 28 11  1  0  0  0  0
 29 28  1  0  0  0  0
 30 28  1  0  0  0  0
 31 30  1  0  0  0  0
 31 32  1  0  0  0  0
 33 32  2  0  0  0  0
 34 33  1  0  0  0  0
 35 36  1  0  0  0  0
 35 34  2  0  0  0  0
 36 31  2  0  0  0  0
M  END
>  <minimizedAffinity>
-6.86726427

$$$$

 OpenBabel09122220473D

 36 40  0  0  1  0  0  0  0  0999 V2000
    9.3190    6.0850   -0.9210 O   0  0  0  0  0  0  0  0  0  0  0  0
    9.8470    6.3560    0.1640 C   0  0  0  0  0  0  0  0  0  0  0  0
   10.2610    7.7700    0.4290 C   0  0  0  0  0  0  0  0  0  0  0  0
   10.8200    8.0690    1.6170 C   0  0  0  0  0  0  0  0  0  0  0  0
   10.9580    7.0670    2.6940 C   0  0  0  0  0  0  0  0  0  0  0  0
   11.3820    7.4030    3.9940 C   0  0  0  0  0  3  0  0  0  0  0  0
   11.5140    6.4250    4.9830 C   0  0  0  0  0  3  0  0  0  0  0  0
   11.2080    5.1010    4.6970 C   0  0  0  0  0  3  0  0  0  0  0  0
   10.7530    4.7570    3.4260 C   0  0  0  0  0  3  0  0  0  0  0  0
   10.6160    5.7300    2.4230 C   0  0  0  0  0  0  0  0  0  0  0  0
   10.1040    5.4010    1.1420 N   0  0  0  0  0  0  0  0  0  0  0  0
   10.0360    8.7710   -0.6830 C   0  0  1  0  0  3  0  0  0  0  0  0
   10.5430    8.5640   -1.8730 N   0  0  0  0  0  0  0  0  0  0  0  0
   10.4100    9.5270   -3.1490 S   0  0  0  0  0  0  0  0  0  0  0  0
   11.7100   10.0930   -3.4520 O   0  0  0  0  0  0  0  0  0  0  0  0
    9.6720    8.8370   -4.1890 O   0  0  0  0  0  0  0  0  0  0  0  0
    9.3990   10.8840   -2.6640 C   0  0  0  0  0  0  0  0  0  0  0  0
    9.0820   11.8750   -3.6000 C   0  0  0  0  0  3  0  0  0  0  0  0
    8.2830   12.9460   -3.2090 C   0  0  0  0  0  3  0  0  0  0  0  0
    7.8130   13.0150   -1.8970 C   0  0  0  0  0  3  0  0  0  0  0  0
    8.1410   12.0140   -0.9760 C   0  0  0  0  0  3  0  0  0  0  0  0
    8.9410   10.9320   -1.3550 C   0  0  0  0  0  0  0  0  0  0  0  0
    9.2670    9.9320   -0.4470 N   0  0  0  0  0  0  0  0  0  0  0  0
   11.0780    7.7140   -2.0220 H   0  0  0  0  0  0  0  0  0  0  0  0
    8.8960   10.0090    0.5020 H   0  0  0  0  0  0  0  0  0  0  0  0
   11.3180    9.3430    1.8610 O   0  0  0  0  0  0  0  0  0  0  0  0
   12.0560    9.2730    2.4950 H   0  0  0  0  0  0  0  0  0  0  0  0
    9.7310    4.0550    0.8670 N   0  0  0  0  0  0  0  0  0  0  0  0
    9.0160    4.0790    0.1300 H   0  0  0  0  0  0  0  0  0  0  0  0
   10.8650    3.2750    0.3520 C   0  0  0  0  0  2  0  0  0  0  0  0
   10.4820    1.8250    0.1870 C   0  0  0  0  0  0  0  0  0  0  0  0
   10.8040    1.1330   -0.9890 C   0  0  0  0  0  3  0  0  0  0  0  0
   10.4670   -0.2130   -1.1340 C   0  0  0  0  0  3  0  0  0  0  0  0
    9.8080   -0.8830   -0.1050 C   0  0  0  0  0  3  0  0  0  0  0  0
    9.4890   -0.2070    1.0720 C   0  0  0  0  0  3  0  0  0  0  0  0
    9.8260    1.1390    1.2200 C   0  0  0  0  0  3  0  0  0  0  0  0
  1  2  2  0  0  0  0
  2  3  1  0  0  0  0
  2 11  1  0  0  0  0
  3  4  2  0  0  0  0
  4 26  1  0  0  0  0
  4  5  1  0  0  0  0
  5  6  1  0  0  0  0
  6  7  2  0  0  0  0
  8  7  1  0  0  0  0
  9  8  2  0  0  0  0
 10  5  2  0  0  0  0
 10  9  1  0  0  0  0
 11 10  1  0  0  0  0
 12 23  1  0  0  0  0
 12  3  1  6  0  0  0
 13 12  1  0  0  0  0
 14 17  1  0  0  0  0
 14 13  1  0  0  0  0
 15 14  2  0  0  0  0
 16 14  2  0  0  0  0
 17 22  1  0  0  0  0
 18 19  1  0  0  0  0
 18 17  2  0  0  0  0
 19 20  2  0  0  0  0
 20 21  1  0  0  0  0
 22 21  2  0  0  0  0
 22 23  1  0  0  0  0
 23 25  1  0  0  0  0
 24 13  1  0  0  0  0
 26 27  1  0  0  0  0
 28 11  1  0  0  0  0
 29 28  1  0  0  0  0
 30 28  1  0  0  0  0
 31 30  1  0  0  0  0
 31 36  1  0  0  0  0
 32 31  2  0  0  0  0
 33 32  1  0  0  0  0
 33 34  2  0  0  0  0
 34 35  1  0  0  0  0
 35 36  2  0  0  0  0
M  END
>  <minimizedAffinity>
-6.86435795

$$$$

 OpenBabel09122220473D

 36 40  0  0  1  0  0  0  0  0999 V2000
    8.7490    1.1230    2.3900 O   0  0  0  0  0  0  0  0  0  0  0  0
    9.3560    0.5840    1.4570 C   0  0  0  0  0  0  0  0  0  0  0  0
   10.2710    1.4200    0.6180 C   0  0  0  0  0  0  0  0  0  0  0  0
   10.9450    0.8310   -0.3880 C   0  0  0  0  0  0  0  0  0  0  0  0
   10.8770   -0.6250   -0.6320 C   0  0  0  0  0  0  0  0  0  0  0  0
   11.7030   -1.2780   -1.5660 C   0  0  0  0  0  3  0  0  0  0  0  0
   11.6000   -2.6550   -1.7800 C   0  0  0  0  0  3  0  0  0  0  0  0
   10.6840   -3.4050   -1.0530 C   0  0  0  0  0  3  0  0  0  0  0  0
    9.8840   -2.7800   -0.0990 C   0  0  0  0  0  3  0  0  0  0  0  0
    9.9780   -1.3970    0.1250 C   0  0  0  0  0  0  0  0  0  0  0  0
    9.2060   -0.7590    1.1300 N   0  0  0  0  0  0  0  0  0  0  0  0
   10.3550    2.8930    0.9520 C   0  0  1  0  0  3  0  0  0  0  0  0
   10.1550    3.7960    0.0240 N   0  0  0  0  0  0  0  0  0  0  0  0
   10.2210    5.3880    0.2090 S   0  0  0  0  0  0  0  0  0  0  0  0
   11.3700    5.9010   -0.5120 O   0  0  0  0  0  0  0  0  0  0  0  0
    8.9090    5.9500   -0.0450 O   0  0  0  0  0  0  0  0  0  0  0  0
   10.5520    5.6930    1.9110 C   0  0  0  0  0  0  0  0  0  0  0  0
   10.6280    7.0120    2.3720 C   0  0  0  0  0  3  0  0  0  0  0  0
   10.8910    7.2450    3.7190 C   0  0  0  0  0  3  0  0  0  0  0  0
   11.0720    6.1660    4.5850 C   0  0  0  0  0  3  0  0  0  0  0  0
   10.9910    4.8540    4.1050 C   0  0  0  0  0  3  0  0  0  0  0  0
   10.7270    4.6050    2.7550 C   0  0  0  0  0  0  0  0  0  0  0  0
   10.6410    3.3050    2.2730 N   0  0  0  0  0  0  0  0  0  0  0  0
    9.9350    3.4750   -0.9140 H   0  0  0  0  0  0  0  0  0  0  0  0
   10.7680    2.5390    2.9370 H   0  0  0  0  0  0  0  0  0  0  0  0
   11.7170    1.5890   -1.2590 O   0  0  0  0  0  0  0  0  0  0  0  0
   11.7330    1.1470   -2.1280 H   0  0  0  0  0  0  0  0  0  0  0  0
    8.3120   -1.5370    1.9190 N   0  0  0  0  0  0  0  0  0  0  0  0
    7.4500   -1.6590    1.3760 H   0  0  0  0  0  0  0  0  0  0  0  0
    8.8560   -2.8760    2.1860 C   0  0  0  0  0  2  0  0  0  0  0  0
    7.7590   -3.9110    2.1490 C   0  0  0  0  0  0  0  0  0  0  0  0
    6.6380   -3.7900    2.9830 C   0  0  0  0  0  3  0  0  0  0  0  0
    5.6130   -4.7360    2.9360 C   0  0  0  0  0  3  0  0  0  0  0  0
    5.6970   -5.8120    2.0540 C   0  0  0  0  0  3  0  0  0  0  0  0
    6.8030   -5.9390    1.2150 C   0  0  0  0  0  3  0  0  0  0  0  0
    7.8270   -4.9930    1.2590 C   0  0  0  0  0  3  0  0  0  0  0  0
  2  1  2  0  0  0  0
  3  2  1  0  0  0  0
  4  3  2  0  0  0  0
  5  4  1  0  0  0  0
  5 10  1  0  0  0  0
  6  5  2  0  0  0  0
  7  6  1  0  0  0  0
  7  8  2  0  0  0  0
  8  9  1  0  0  0  0
  9 10  2  0  0  0  0
 10 11  1  0  0  0  0
 11  2  1  0  0  0  0
 11 28  1  0  0  0  0
 12  3  1  1  0  0  0
 12 23  1  0  0  0  0
 13 14  1  0  0  0  0
 13 12  1  0  0  0  0
 14 17  1  0  0  0  0
 15 14  2  0  0  0  0
 16 14  2  0  0  0  0
 17 18  2  0  0  0  0
 17 22  1  0  0  0  0
 18 19  1  0  0  0  0
 19 20  2  0  0  0  0
 21 20  1  0  0  0  0
 22 21  2  0  0  0  0
 23 22  1  0  0  0  0
 23 25  1  0  0  0  0
 24 13  1  0  0  0  0
 26  4  1  0  0  0  0
 27 26  1  0  0  0  0
 28 30  1  0  0  0  0
 29 28  1  0  0  0  0
 31 30  1  0  0  0  0
 31 32  1  0  0  0  0
 33 32  2  0  0  0  0
 34 33  1  0  0  0  0
 35 36  1  0  0  0  0
 35 34  2  0  0  0  0
 36 31  2  0  0  0  0
M  END
>  <minimizedAffinity>
-6.76188803

$$$$

 OpenBabel09122220473D

 36 40  0  0  1  0  0  0  0  0999 V2000
    8.0330   -2.5250    2.9620 O   0  0  0  0  0  0  0  0  0  0  0  0
    8.6680   -2.5200    1.9000 C   0  0  0  0  0  0  0  0  0  0  0  0
    8.5070   -3.6750    0.9620 C   0  0  0  0  0  0  0  0  0  0  0  0
    9.1860   -3.6630   -0.2010 C   0  0  0  0  0  0  0  0  0  0  0  0
   10.0120   -2.5100   -0.6160 C   0  0  0  0  0  0  0  0  0  0  0  0
   10.5870   -2.4110   -1.8970 C   0  0  0  0  0  3  0  0  0  0  0  0
   11.3750   -1.3120   -2.2490 C   0  0  0  0  0  3  0  0  0  0  0  0
   11.5870   -0.2870   -1.3350 C   0  0  0  0  0  3  0  0  0  0  0  0
   10.9950   -0.3520   -0.0750 C   0  0  0  0  0  3  0  0  0  0  0  0
   10.2010   -1.4520    0.2900 C   0  0  0  0  0  0  0  0  0  0  0  0
    9.5520   -1.5060    1.5500 N   0  0  0  0  0  0  0  0  0  0  0  0
    7.5960   -4.7990    1.4060 C   0  0  1  0  0  3  0  0  0  0  0  0
    7.8400   -6.0330    1.0400 N   0  0  0  0  0  0  0  0  0  0  0  0
    6.9700   -7.3290    1.4100 S   0  0  0  0  0  0  0  0  0  0  0  0
    6.3320   -7.8300    0.2090 O   0  0  0  0  0  0  0  0  0  0  0  0
    7.7750   -8.2250    2.2170 O   0  0  0  0  0  0  0  0  0  0  0  0
    5.6620   -6.7870    2.4560 C   0  0  0  0  0  0  0  0  0  0  0  0
    4.7570   -7.7230    2.9680 C   0  0  0  0  0  3  0  0  0  0  0  0
    3.7240   -7.2860    3.7930 C   0  0  0  0  0  3  0  0  0  0  0  0
    3.6070   -5.9300    4.0950 C   0  0  0  0  0  3  0  0  0  0  0  0
    4.5230   -5.0090    3.5750 C   0  0  0  0  0  3  0  0  0  0  0  0
    5.5660   -5.4330    2.7460 C   0  0  0  0  0  0  0  0  0  0  0  0
    6.4810   -4.5240    2.2280 N   0  0  0  0  0  0  0  0  0  0  0  0
    8.6560   -6.2060    0.4620 H   0  0  0  0  0  0  0  0  0  0  0  0
    6.3720   -3.5400    2.4800 H   0  0  0  0  0  0  0  0  0  0  0  0
    9.1510   -4.7630   -1.0480 O   0  0  0  0  0  0  0  0  0  0  0  0
    9.9910   -4.8020   -1.5440 H   0  0  0  0  0  0  0  0  0  0  0  0
    9.7170   -0.4260    2.4640 N   0  0  0  0  0  0  0  0  0  0  0  0
   10.7120   -0.1740    2.4640 H   0  0  0  0  0  0  0  0  0  0  0  0
    8.9640    0.7610    2.0360 C   0  0  0  0  0  2  0  0  0  0  0  0
    9.7840    2.0110    2.2370 C   0  0  0  0  0  0  0  0  0  0  0  0
   10.4090    2.2620    3.4680 C   0  0  0  0  0  3  0  0  0  0  0  0
   11.1840    3.4080    3.6490 C   0  0  0  0  0  3  0  0  0  0  0  0
   11.3450    4.3140    2.6020 C   0  0  0  0  0  3  0  0  0  0  0  0
   10.7350    4.0720    1.3720 C   0  0  0  0  0  3  0  0  0  0  0  0
    9.9610    2.9260    1.1890 C   0  0  0  0  0  3  0  0  0  0  0  0
  2  1  2  0  0  0  0
  3  2  1  0  0  0  0
  4  3  2  0  0  0  0
  5  4  1  0  0  0  0
  5 10  1  0  0  0  0
  6  5  2  0  0  0  0
  7  6  1  0  0  0  0
  7  8  2  0  0  0  0
  8  9  1  0  0  0  0
  9 10  2  0  0  0  0
 10 11  1  0  0  0  0
 11  2  1  0  0  0  0
 11 28  1  0  0  0  0
 12  3  1  1  0  0  0
 12 23  1  0  0  0  0
 13 12  1  0  0  0  0
 13 14  1  0  0  0  0
 14 16  2  0  0  0  0
 14 17  1  0  0  0  0
 15 14  2  0  0  0  0
 17 22  2  0  0  0  0
 17 18  1  0  0  0  0
 18 19  2  0  0  0  0
 19 20  1  0  0  0  0
 21 20  2  0  0  0  0
 22 21  1  0  0  0  0
 23 25  1  0  0  0  0
 23 22  1  0  0  0  0
 24 13  1  0  0  0  0
 26  4  1  0  0  0  0
 27 26  1  0  0  0  0
 28 29  1  0  0  0  0
 30 31  1  0  0  0  0
 30 28  1  0  0  0  0
 31 32  1  0  0  0  0
 32 33  2  0  0  0  0
 34 33  1  0  0  0  0
 35 34  2  0  0  0  0
 36 35  1  0  0  0  0
 36 31  2  0  0  0  0
M  END
>  <minimizedAffinity>
-6.66460705

$$$$

 OpenBabel09122220473D

 36 40  0  0  1  0  0  0  0  0999 V2000
    9.8070    3.3900   -0.1130 O   0  0  0  0  0  0  0  0  0  0  0  0
    9.9460    2.8380    0.9860 C   0  0  0  0  0  0  0  0  0  0  0  0
   10.2910    3.6800    2.1750 C   0  0  0  0  0  0  0  0  0  0  0  0
   10.4260    3.0810    3.3740 C   0  0  0  0  0  0  0  0  0  0  0  0
   10.1600    1.6400    3.5660 C   0  0  0  0  0  0  0  0  0  0  0  0
   10.1310    1.0380    4.8380 C   0  0  0  0  0  3  0  0  0  0  0  0
    9.8910   -0.3310    4.9810 C   0  0  0  0  0  3  0  0  0  0  0  0
    9.6580   -1.1170    3.8590 C   0  0  0  0  0  3  0  0  0  0  0  0
    9.6480   -0.5300    2.5950 C   0  0  0  0  0  3  0  0  0  0  0  0
    9.8880    0.8460    2.4390 C   0  0  0  0  0  0  0  0  0  0  0  0
    9.8290    1.4640    1.1640 N   0  0  0  0  0  0  0  0  0  0  0  0
   10.4860    5.1600    1.9340 C   0  0  1  0  0  3  0  0  0  0  0  0
   10.2410    6.0250    2.8880 N   0  0  0  0  0  0  0  0  0  0  0  0
   10.3820    7.6200    2.7920 S   0  0  0  0  0  0  0  0  0  0  0  0
    9.0630    8.2170    2.8580 O   0  0  0  0  0  0  0  0  0  0  0  0
   11.4120    8.0600    3.7130 O   0  0  0  0  0  0  0  0  0  0  0  0
   10.9920    7.9840    1.1810 C   0  0  0  0  0  0  0  0  0  0  0  0
   11.2480    9.3130    0.8270 C   0  0  0  0  0  3  0  0  0  0  0  0
   11.7290    9.5940   -0.4490 C   0  0  0  0  0  3  0  0  0  0  0  0
   11.9460    8.5520   -1.3510 C   0  0  0  0  0  3  0  0  0  0  0  0
   11.6840    7.2290   -0.9780 C   0  0  0  0  0  3  0  0  0  0  0  0
   11.2030    6.9320    0.3010 C   0  0  0  0  0  0  0  0  0  0  0  0
   10.9440    5.6210    0.6800 N   0  0  0  0  0  0  0  0  0  0  0  0
    9.9270    5.6680    3.7850 H   0  0  0  0  0  0  0  0  0  0  0  0
   11.1260    4.8810   -0.0020 H   0  0  0  0  0  0  0  0  0  0  0  0
   10.8520    3.8070    4.4780 O   0  0  0  0  0  0  0  0  0  0  0  0
   11.3300    3.2060    5.0810 H   0  0  0  0  0  0  0  0  0  0  0  0
    9.5280    0.6710    0.0200 N   0  0  0  0  0  0  0  0  0  0  0  0
    8.9930    1.2590   -0.6290 H   0  0  0  0  0  0  0  0  0  0  0  0
   10.7490    0.2470   -0.6780 C   0  0  0  0  0  2  0  0  0  0  0  0
   10.8140   -1.2580   -0.7680 C   0  0  0  0  0  0  0  0  0  0  0  0
   11.8060   -1.8830   -1.5370 C   0  0  0  0  0  3  0  0  0  0  0  0
   11.8790   -3.2750   -1.6050 C   0  0  0  0  0  3  0  0  0  0  0  0
   10.9650   -4.0560   -0.9010 C   0  0  0  0  0  3  0  0  0  0  0  0
    9.9780   -3.4470   -0.1270 C   0  0  0  0  0  3  0  0  0  0  0  0
    9.9050   -2.0550   -0.0570 C   0  0  0  0  0  3  0  0  0  0  0  0
  1  2  2  0  0  0  0
  2 11  1  0  0  0  0
  2  3  1  0  0  0  0
  3  4  2  0  0  0  0
  4  5  1  0  0  0  0
  4 26  1  0  0  0  0
  5  6  1  0  0  0  0
  6  7  2  0  0  0  0
  8  7  1  0  0  0  0
  9  8  2  0  0  0  0
 10  9  1  0  0  0  0
 10  5  2  0  0  0  0
 11 10  1  0  0  0  0
 12  3  1  1  0  0  0
 12 13  1  0  0  0  0
 13 24  1  0  0  0  0
 14 15  2  0  0  0  0
 14 13  1  0  0  0  0
 14 16  2  0  0  0  0
 17 14  1  0  0  0  0
 18 17  1  0  0  0  0
 19 18  2  0  0  0  0
 20 21  2  0  0  0  0
 20 19  1  0  0  0  0
 21 22  1  0  0  0  0
 22 23  1  0  0  0  0
 22 17  2  0  0  0  0
 23 12  1  0  0  0  0
 25 23  1  0  0  0  0
 26 27  1  0  0  0  0
 28 11  1  0  0  0  0
 29 28  1  0  0  0  0
 30 28  1  0  0  0  0
 31 30  1  0  0  0  0
 31 36  1  0  0  0  0
 32 31  2  0  0  0  0
 33 32  1  0  0  0  0
 33 34  2  0  0  0  0
 34 35  1  0  0  0  0
 35 36  2  0  0  0  0
M  END
>  <minimizedAffinity>
-6.15298796

$$$$

 OpenBabel09122220473D

 36 40  0  0  1  0  0  0  0  0999 V2000
    9.1400    4.6520   -0.3300 O   0  0  0  0  0  0  0  0  0  0  0  0
    9.6710    5.0780    0.7030 C   0  0  0  0  0  0  0  0  0  0  0  0
   10.2760    4.0960    1.6580 C   0  0  0  0  0  0  0  0  0  0  0  0
   10.8680    4.5610    2.7750 C   0  0  0  0  0  0  0  0  0  0  0  0
   11.0160    6.0070    3.0410 C   0  0  0  0  0  0  0  0  0  0  0  0
   11.7790    6.5070    4.1130 C   0  0  0  0  0  3  0  0  0  0  0  0
   11.8850    7.8810    4.3430 C   0  0  0  0  0  3  0  0  0  0  0  0
   11.2460    8.7780    3.4970 C   0  0  0  0  0  3  0  0  0  0  0  0
   10.5160    8.3020    2.4100 C   0  0  0  0  0  3  0  0  0  0  0  0
   10.4020    6.9220    2.1690 C   0  0  0  0  0  0  0  0  0  0  0  0
    9.7060    6.4280    1.0370 N   0  0  0  0  0  0  0  0  0  0  0  0
   10.1550    2.6310    1.3040 C   0  0  1  0  0  3  0  0  0  0  0  0
    9.5190    1.8070    2.0990 N   0  0  0  0  0  0  0  0  0  0  0  0
    9.3140    0.2310    1.8780 S   0  0  0  0  0  0  0  0  0  0  0  0
   10.0790   -0.4900    2.8770 O   0  0  0  0  0  0  0  0  0  0  0  0
    7.9000   -0.0460    1.7240 O   0  0  0  0  0  0  0  0  0  0  0  0
   10.0530   -0.1690    0.3310 C   0  0  0  0  0  0  0  0  0  0  0  0
    9.9920   -1.4860   -0.1400 C   0  0  0  0  0  3  0  0  0  0  0  0
   10.5800   -1.7950   -1.3640 C   0  0  0  0  0  3  0  0  0  0  0  0
   11.2170   -0.7940   -2.0980 C   0  0  0  0  0  3  0  0  0  0  0  0
   11.2660    0.5170   -1.6100 C   0  0  0  0  0  3  0  0  0  0  0  0
   10.6790    0.8420   -0.3840 C   0  0  0  0  0  0  0  0  0  0  0  0
   10.7210    2.1420    0.1050 N   0  0  0  0  0  0  0  0  0  0  0  0
    9.1070    2.1850    2.9470 H   0  0  0  0  0  0  0  0  0  0  0  0
   11.1850    2.8520   -0.4640 H   0  0  0  0  0  0  0  0  0  0  0  0
   11.3430    3.6810    3.7390 O   0  0  0  0  0  0  0  0  0  0  0  0
   11.2930    4.1170    4.6100 H   0  0  0  0  0  0  0  0  0  0  0  0
    9.1040    7.3490    0.1330 N   0  0  0  0  0  0  0  0  0  0  0  0
    8.9510    8.2250    0.6450 H   0  0  0  0  0  0  0  0  0  0  0  0
    9.9920    7.6520   -0.9980 C   0  0  0  0  0  2  0  0  0  0  0  0
    9.8350    9.0910   -1.4250 C   0  0  0  0  0  0  0  0  0  0  0  0
    9.9860    9.4530   -2.7720 C   0  0  0  0  0  3  0  0  0  0  0  0
    9.8220   10.7810   -3.1710 C   0  0  0  0  0  3  0  0  0  0  0  0
    9.5020   11.7580   -2.2300 C   0  0  0  0  0  3  0  0  0  0  0  0
    9.3420   11.4080   -0.8900 C   0  0  0  0  0  3  0  0  0  0  0  0
    9.5040   10.0810   -0.4890 C   0  0  0  0  0  3  0  0  0  0  0  0
  1  2  2  0  0  0  0
  2 11  1  0  0  0  0
  2  3  1  0  0  0  0
  3  4  2  0  0  0  0
  4  5  1  0  0  0  0
  4 26  1  0  0  0  0
  5  6  1  0  0  0  0
  6  7  2  0  0  0  0
  8  7  1  0  0  0  0
  9  8  2  0  0  0  0
 10  9  1  0  0  0  0
 10  5  2  0  0  0  0
 11 10  1  0  0  0  0
 12  3  1  6  0  0  0
 12 13  1  0  0  0  0
 13 24  1  0  0  0  0
 14 13  1  0  0  0  0
 14 15  2  0  0  0  0
 16 14  2  0  0  0  0
 17 14  1  0  0  0  0
 18 17  1  0  0  0  0
 19 18  2  0  0  0  0
 20 21  2  0  0  0  0
 20 19  1  0  0  0  0
 21 22  1  0  0  0  0
 22 23  1  0  0  0  0
 22 17  2  0  0  0  0
 23 12  1  0  0  0  0
 25 23  1  0  0  0  0
 26 27  1  0  0  0  0
 28 29  1  0  0  0  0
 28 11  1  0  0  0  0
 30 28  1  0  0  0  0
 31 30  1  0  0  0  0
 31 36  1  0  0  0  0
 32 31  2  0  0  0  0
 33 32  1  0  0  0  0
 33 34  2  0  0  0  0
 34 35  1  0  0  0  0
 35 36  2  0  0  0  0
M  END
>  <minimizedAffinity>
-6.04764414

$$$$

 OpenBabel09122220473D

 36 40  0  0  1  0  0  0  0  0999 V2000
    9.4290    4.1440   -0.7190 O   0  0  0  0  0  0  0  0  0  0  0  0
    9.8270    3.8980    0.4260 C   0  0  0  0  0  0  0  0  0  0  0  0
   10.2840    5.0350    1.2870 C   0  0  0  0  0  0  0  0  0  0  0  0
   10.7030    4.7700    2.5390 C   0  0  0  0  0  0  0  0  0  0  0  0
   10.6410    3.4110    3.1160 C   0  0  0  0  0  0  0  0  0  0  0  0
   10.9130    3.1500    4.4730 C   0  0  0  0  0  3  0  0  0  0  0  0
   10.8590    1.8490    4.9800 C   0  0  0  0  0  3  0  0  0  0  0  0
   10.5160    0.7910    4.1470 C   0  0  0  0  0  3  0  0  0  0  0  0
   10.2100    1.0370    2.8100 C   0  0  0  0  0  3  0  0  0  0  0  0
   10.2600    2.3400    2.2880 C   0  0  0  0  0  0  0  0  0  0  0  0
    9.9000    2.6100    0.9430 N   0  0  0  0  0  0  0  0  0  0  0  0
   10.2640    6.4150    0.6690 C   0  0  1  0  0  3  0  0  0  0  0  0
   10.4840    6.5710   -0.6130 N   0  0  0  0  0  0  0  0  0  0  0  0
   10.5100    7.9600   -1.4170 S   0  0  0  0  0  0  0  0  0  0  0  0
   11.8660    8.2270   -1.8550 O   0  0  0  0  0  0  0  0  0  0  0  0
    9.4320    7.9670   -2.3850 O   0  0  0  0  0  0  0  0  0  0  0  0
   10.1240    9.2290   -0.2590 C   0  0  0  0  0  0  0  0  0  0  0  0
   10.0400   10.5560   -0.6960 C   0  0  0  0  0  3  0  0  0  0  0  0
    9.7360   11.5540    0.2250 C   0  0  0  0  0  3  0  0  0  0  0  0
    9.5200   11.2190    1.5620 C   0  0  0  0  0  3  0  0  0  0  0  0
    9.6070    9.8860    1.9790 C   0  0  0  0  0  3  0  0  0  0  0  0
    9.9110    8.8730    1.0650 C   0  0  0  0  0  0  0  0  0  0  0  0
    9.9960    7.5470    1.4710 N   0  0  0  0  0  0  0  0  0  0  0  0
   10.6580    5.7410   -1.1710 H   0  0  0  0  0  0  0  0  0  0  0  0
    9.8200    7.3360    2.4550 H   0  0  0  0  0  0  0  0  0  0  0  0
   11.2380    5.7780    3.3310 O   0  0  0  0  0  0  0  0  0  0  0  0
   11.8830    5.3810    3.9470 H   0  0  0  0  0  0  0  0  0  0  0  0
    9.4870    1.5350    0.1050 N   0  0  0  0  0  0  0  0  0  0  0  0
    8.7760    1.9030   -0.5370 H   0  0  0  0  0  0  0  0  0  0  0  0
   10.5990    1.0330   -0.7130 C   0  0  0  0  0  2  0  0  0  0  0  0
   10.6430   -0.4750   -0.6810 C   0  0  0  0  0  0  0  0  0  0  0  0
    9.8570   -1.1910    0.2340 C   0  0  0  0  0  3  0  0  0  0  0  0
    9.8820   -2.5860    0.2510 C   0  0  0  0  0  3  0  0  0  0  0  0
   10.6900   -3.2800   -0.6470 C   0  0  0  0  0  3  0  0  0  0  0  0
   11.4710   -2.5810   -1.5660 C   0  0  0  0  0  3  0  0  0  0  0  0
   11.4450   -1.1860   -1.5860 C   0  0  0  0  0  3  0  0  0  0  0  0
  1  2  2  0  0  0  0
  2 11  1  0  0  0  0
  2  3  1  0  0  0  0
  3  4  2  0  0  0  0
  4  5  1  0  0  0  0
  4 26  1  0  0  0  0
  5  6  1  0  0  0  0
  6  7  2  0  0  0  0
  8  7  1  0  0  0  0
  9  8  2  0  0  0  0
 10  9  1  0  0  0  0
 10  5  2  0  0  0  0
 11 10  1  0  0  0  0
 12  3  1  6  0  0  0
 12 23  1  0  0  0  0
 13 12  1  0  0  0  0
 14 13  1  0  0  0  0
 14 17  1  0  0  0  0
 15 14  2  0  0  0  0
 16 14  2  0  0  0  0
 17 22  1  0  0  0  0
 18 17  2  0  0  0  0
 18 19  1  0  0  0  0
 19 20  2  0  0  0  0
 20 21  1  0  0  0  0
 22 23  1  0  0  0  0
 22 21  2  0  0  0  0
 23 25  1  0  0  0  0
 24 13  1  0  0  0  0
 26 27  1  0  0  0  0
 28 11  1  0  0  0  0
 29 28  1  0  0  0  0
 30 31  1  0  0  0  0
 30 28  1  0  0  0  0
 31 32  1  0  0  0  0
 32 33  2  0  0  0  0
 34 33  1  0  0  0  0
 35 34  2  0  0  0  0
 36 35  1  0  0  0  0
 36 31  2  0  0  0  0
M  END
>  <minimizedAffinity>
-5.93572617

$$$$

 OpenBabel09122220473D

 36 40  0  0  1  0  0  0  0  0999 V2000
   10.4500    8.0920   -0.5920 O   0  0  0  0  0  0  0  0  0  0  0  0
   10.6460    8.9700    0.2570 C   0  0  0  0  0  0  0  0  0  0  0  0
   10.2560   10.3790   -0.0640 C   0  0  0  0  0  0  0  0  0  0  0  0
   10.4540   11.3320    0.8670 C   0  0  1  0  0  3  0  0  0  0  0  0
   10.9590   11.0170    2.2190 C   0  0  0  0  0  0  0  0  0  0  0  0
   11.0100   11.9720    3.2520 C   0  0  0  0  0  3  0  0  0  0  0  0
   11.5080   11.6410    4.5150 C   0  0  0  0  0  3  0  0  0  0  0  0
   11.9470   10.3480    4.7720 C   0  0  0  0  0  3  0  0  0  0  0  0
   11.8710    9.3810    3.7710 C   0  0  0  0  0  3  0  0  0  0  0  0
   11.3720    9.7020    2.4980 C   0  0  0  0  0  0  0  0  0  0  0  0
   11.2420    8.7150    1.4880 N   0  0  0  0  0  0  0  0  0  0  0  0
    9.6800   10.6360   -1.4380 C   0  0  0  0  0  0  0  0  0  0  0  0
    9.4990   11.8630   -1.8620 N   0  0  0  0  0  0  0  0  0  0  0  0
    8.8900   12.3040   -3.2790 S   0  0  0  0  0  0  0  0  0  0  0  0
    7.5950   12.9220   -3.0660 O   0  0  0  0  0  0  0  0  0  0  0  0
    9.9050   13.0150   -4.0300 O   0  0  0  0  0  0  0  0  0  0  0  0
    8.5700   10.8270   -4.1820 C   0  0  0  0  0  0  0  0  0  0  0  0
    8.0630   10.9120   -5.4840 C   0  0  0  0  0  3  0  0  0  0  0  0
    7.8120    9.7400   -6.1910 C   0  0  0  0  0  3  0  0  0  0  0  0
    8.0680    8.5050   -5.5960 C   0  0  0  0  0  3  0  0  0  0  0  0
    8.5770    8.4400   -4.2940 C   0  0  0  0  0  3  0  0  0  0  0  0
    8.8350    9.6090   -3.5720 C   0  0  0  0  0  0  0  0  0  0  0  0
    9.3430    9.5530   -2.2800 N   0  0  0  0  0  0  0  0  0  0  0  0
    9.7640   12.6240   -1.2450 H   0  0  0  0  0  0  0  0  0  0  0  0
    9.5310    8.6310   -1.8800 H   0  0  0  0  0  0  0  0  0  0  0  0
   10.2090   12.6670    0.5700 O   0  0  0  0  0  0  0  0  0  0  0  0
   10.8060   13.2200    1.1090 H   0  0  0  0  0  0  0  0  0  0  0  0
   11.6320    7.3750    1.7700 N   0  0  0  0  0  0  0  0  0  0  0  0
   12.4050    7.4170    2.4450 H   0  0  0  0  0  0  0  0  0  0  0  0
   10.5420    6.6170    2.3980 C   0  0  0  0  0  2  0  0  0  0  0  0
   10.5170    5.1990    1.8840 C   0  0  0  0  0  0  0  0  0  0  0  0
   10.8810    4.1330    2.7190 C   0  0  0  0  0  3  0  0  0  0  0  0
   10.8400    2.8180    2.2500 C   0  0  0  0  0  3  0  0  0  0  0  0
   10.4300    2.5560    0.9440 C   0  0  0  0  0  3  0  0  0  0  0  0
   10.0580    3.6070    0.1070 C   0  0  0  0  0  3  0  0  0  0  0  0
   10.0980    4.9210    0.5750 C   0  0  0  0  0  3  0  0  0  0  0  0
  1  2  2  0  0  0  0
  2 11  1  0  0  0  0
  3  2  1  0  0  0  0
  3  4  1  0  0  0  0
  4 26  1  6  0  0  0
  4  5  1  0  0  0  0
  5 10  2  0  0  0  0
  5  6  1  0  0  0  0
  6  7  2  0  0  0  0
  7  8  1  0  0  0  0
  9  8  2  0  0  0  0
 10  9  1  0  0  0  0
 11 28  1  0  0  0  0
 11 10  1  0  0  0  0
 12  3  2  0  0  0  0
 13 12  1  0  0  0  0
 13 24  1  0  0  0  0
 14 15  2  0  0  0  0
 14 13  1  0  0  0  0
 16 14  2  0  0  0  0
 17 22  1  0  0  0  0
 17 14  1  0  0  0  0
 18 17  2  0  0  0  0
 19 20  2  0  0  0  0
 19 18  1  0  0  0  0
 20 21  1  0  0  0  0
 21 22  2  0  0  0  0
 22 23  1  0  0  0  0
 23 25  1  0  0  0  0
 23 12  1  0  0  0  0
 26 27  1  0  0  0  0
 28 30  1  0  0  0  0
 28 29  1  0  0  0  0
 31 30  1  0  0  0  0
 31 32  1  0  0  0  0
 33 32  2  0  0  0  0
 34 33  1  0  0  0  0
 35 36  1  0  0  0  0
 35 34  2  0  0  0  0
 36 31  2  0  0  0  0
M  END
>  <minimizedAffinity>
-5.73310852

$$$$

 OpenBabel09122220473D

 36 40  0  0  1  0  0  0  0  0999 V2000
    9.3640    5.9990   -1.3070 O   0  0  0  0  0  0  0  0  0  0  0  0
    9.8600    6.3830   -0.2410 C   0  0  0  0  0  0  0  0  0  0  0  0
   10.0640    7.8510   -0.0300 C   0  0  0  0  0  0  0  0  0  0  0  0
   10.5880    8.2700    1.1370 C   0  0  1  0  0  3  0  0  0  0  0  0
   10.8850    7.3370    2.2440 C   0  0  0  0  0  0  0  0  0  0  0  0
   11.2720    7.7770    3.5240 C   0  0  0  0  0  3  0  0  0  0  0  0
   11.5590    6.8650    4.5430 C   0  0  0  0  0  3  0  0  0  0  0  0
   11.4480    5.5010    4.3060 C   0  0  0  0  0  3  0  0  0  0  0  0
   11.0330    5.0490    3.0550 C   0  0  0  0  0  3  0  0  0  0  0  0
   10.7410    5.9570    2.0230 C   0  0  0  0  0  0  0  0  0  0  0  0
   10.2680    5.5110    0.7630 N   0  0  0  0  0  0  0  0  0  0  0  0
    9.6800    8.7680   -1.1700 C   0  0  0  0  0  0  0  0  0  0  0  0
    9.8730   10.0610   -1.0750 N   0  0  0  0  0  0  0  0  0  0  0  0
    9.5110   11.1650   -2.1800 S   0  0  0  0  0  0  0  0  0  0  0  0
    8.4250   11.9890   -1.6870 O   0  0  0  0  0  0  0  0  0  0  0  0
   10.7330   11.7950   -2.6390 O   0  0  0  0  0  0  0  0  0  0  0  0
    8.8630   10.3040   -3.5720 C   0  0  0  0  0  0  0  0  0  0  0  0
    8.4930   11.0220   -4.7150 C   0  0  0  0  0  3  0  0  0  0  0  0
    7.9800   10.3340   -5.8110 C   0  0  0  0  0  3  0  0  0  0  0  0
    7.8440    8.9470   -5.7550 C   0  0  0  0  0  3  0  0  0  0  0  0
    8.2210    8.2460   -4.6050 C   0  0  0  0  0  3  0  0  0  0  0  0
    8.7390    8.9240   -3.4960 C   0  0  0  0  0  0  0  0  0  0  0  0
    9.1190    8.2340   -2.3520 N   0  0  0  0  0  0  0  0  0  0  0  0
   10.2920   10.4180   -0.2220 H   0  0  0  0  0  0  0  0  0  0  0  0
    9.0170    7.2170   -2.3500 H   0  0  0  0  0  0  0  0  0  0  0  0
   10.8960    9.6110    1.3300 O   0  0  0  0  0  0  0  0  0  0  0  0
   11.6440    9.6720    1.9540 H   0  0  0  0  0  0  0  0  0  0  0  0
   10.0930    4.1150    0.5390 N   0  0  0  0  0  0  0  0  0  0  0  0
    9.4000    4.0100   -0.2110 H   0  0  0  0  0  0  0  0  0  0  0  0
   11.3370    3.4840    0.0780 C   0  0  0  0  0  2  0  0  0  0  0  0
   11.0570    2.1190   -0.5010 C   0  0  0  0  0  0  0  0  0  0  0  0
   11.6270    1.7350   -1.7240 C   0  0  0  0  0  3  0  0  0  0  0  0
   11.3840    0.4650   -2.2510 C   0  0  0  0  0  3  0  0  0  0  0  0
   10.5730   -0.4330   -1.5600 C   0  0  0  0  0  3  0  0  0  0  0  0
   10.0070   -0.0650   -0.3410 C   0  0  0  0  0  3  0  0  0  0  0  0
   10.2500    1.2030    0.1890 C   0  0  0  0  0  3  0  0  0  0  0  0
  1  2  2  0  0  0  0
  2  3  1  0  0  0  0
  2 11  1  0  0  0  0
  3  4  1  0  0  0  0
  4 26  1  6  0  0  0
  4  5  1  0  0  0  0
  5  6  1  0  0  0  0
  6  7  2  0  0  0  0
  8  7  1  0  0  0  0
  9  8  2  0  0  0  0
 10  5  2  0  0  0  0
 10  9  1  0  0  0  0
 11 10  1  0  0  0  0
 12 13  1  0  0  0  0
 12  3  2  0  0  0  0
 13 24  1  0  0  0  0
 14 15  2  0  0  0  0
 14 13  1  0  0  0  0
 16 14  2  0  0  0  0
 17 22  1  0  0  0  0
 17 14  1  0  0  0  0
 18 17  2  0  0  0  0
 19 20  2  0  0  0  0
 19 18  1  0  0  0  0
 20 21  1  0  0  0  0
 21 22  2  0  0  0  0
 22 23  1  0  0  0  0
 23 25  1  0  0  0  0
 23 12  1  0  0  0  0
 26 27  1  0  0  0  0
 28 11  1  0  0  0  0
 29 28  1  0  0  0  0
 30 28  1  0  0  0  0
 31 30  1  0  0  0  0
 31 36  1  0  0  0  0
 32 31  2  0  0  0  0
 33 32  1  0  0  0  0
 33 34  2  0  0  0  0
 34 35  1  0  0  0  0
 35 36  2  0  0  0  0
M  END
>  <minimizedAffinity>
-5.42698336

$$$$
