
 OpenBabel09122222393D

 36 40  0  0  1  0  0  0  0  0999 V2000
    9.4290    4.1440   -0.7190 O   0  0  0  0  0  0  0  0  0  0  0  0
    9.8270    3.8980    0.4260 C   0  0  0  0  0  0  0  0  0  0  0  0
   10.2840    5.0350    1.2870 C   0  0  0  0  0  0  0  0  0  0  0  0
   10.7030    4.7700    2.5390 C   0  0  0  0  0  0  0  0  0  0  0  0
   10.6410    3.4110    3.1160 C   0  0  0  0  0  0  0  0  0  0  0  0
   10.9130    3.1500    4.4730 C   0  0  0  0  0  3  0  0  0  0  0  0
   10.8590    1.8490    4.9800 C   0  0  0  0  0  3  0  0  0  0  0  0
   10.5160    0.7910    4.1470 C   0  0  0  0  0  3  0  0  0  0  0  0
   10.2100    1.0370    2.8100 C   0  0  0  0  0  3  0  0  0  0  0  0
   10.2600    2.3400    2.2880 C   0  0  0  0  0  0  0  0  0  0  0  0
    9.9000    2.6100    0.9430 N   0  0  0  0  0  0  0  0  0  0  0  0
   10.2640    6.4150    0.6690 C   0  0  1  0  0  3  0  0  0  0  0  0
   10.4840    6.5710   -0.6130 N   0  0  0  0  0  0  0  0  0  0  0  0
   10.5100    7.9600   -1.4170 S   0  0  0  0  0  0  0  0  0  0  0  0
   11.8660    8.2270   -1.8550 O   0  0  0  0  0  0  0  0  0  0  0  0
    9.4320    7.9670   -2.3850 O   0  0  0  0  0  0  0  0  0  0  0  0
   10.1240    9.2290   -0.2590 C   0  0  0  0  0  0  0  0  0  0  0  0
   10.0400   10.5560   -0.6960 C   0  0  0  0  0  3  0  0  0  0  0  0
    9.7360   11.5540    0.2250 C   0  0  0  0  0  3  0  0  0  0  0  0
    9.5200   11.2190    1.5620 C   0  0  0  0  0  3  0  0  0  0  0  0
    9.6070    9.8860    1.9790 C   0  0  0  0  0  3  0  0  0  0  0  0
    9.9110    8.8730    1.0650 C   0  0  0  0  0  0  0  0  0  0  0  0
    9.9960    7.5470    1.4710 N   0  0  0  0  0  0  0  0  0  0  0  0
   10.6580    5.7410   -1.1710 H   0  0  0  0  0  0  0  0  0  0  0  0
    9.8200    7.3360    2.4550 H   0  0  0  0  0  0  0  0  0  0  0  0
   11.2380    5.7780    3.3310 O   0  0  0  0  0  0  0  0  0  0  0  0
   11.8830    5.3810    3.9470 H   0  0  0  0  0  0  0  0  0  0  0  0
    9.4870    1.5350    0.1050 N   0  0  0  0  0  0  0  0  0  0  0  0
    8.7760    1.9030   -0.5370 H   0  0  0  0  0  0  0  0  0  0  0  0
   10.5990    1.0330   -0.7130 C   0  0  0  0  0  2  0  0  0  0  0  0
   10.6430   -0.4750   -0.6810 C   0  0  0  0  0  0  0  0  0  0  0  0
    9.8570   -1.1910    0.2340 C   0  0  0  0  0  3  0  0  0  0  0  0
    9.8820   -2.5860    0.2510 C   0  0  0  0  0  3  0  0  0  0  0  0
   10.6900   -3.2800   -0.6470 C   0  0  0  0  0  3  0  0  0  0  0  0
   11.4710   -2.5810   -1.5660 C   0  0  0  0  0  3  0  0  0  0  0  0
   11.4450   -1.1860   -1.5860 C   0  0  0  0  0  3  0  0  0  0  0  0
  1  2  2  0  0  0  0
  2 11  1  0  0  0  0
  2  3  1  0  0  0  0
  3  4  2  0  0  0  0
  4  5  1  0  0  0  0
  4 26  1  0  0  0  0
  5  6  1  0  0  0  0
  6  7  2  0  0  0  0
  8  7  1  0  0  0  0
  9  8  2  0  0  0  0
 10  9  1  0  0  0  0
 10  5  2  0  0  0  0
 11 10  1  0  0  0  0
 12  3  1  6  0  0  0
 12 23  1  0  0  0  0
 13 12  1  0  0  0  0
 14 13  1  0  0  0  0
 14 17  1  0  0  0  0
 15 14  2  0  0  0  0
 16 14  2  0  0  0  0
 17 22  1  0  0  0  0
 18 17  2  0  0  0  0
 18 19  1  0  0  0  0
 19 20  2  0  0  0  0
 20 21  1  0  0  0  0
 22 23  1  0  0  0  0
 22 21  2  0  0  0  0
 23 25  1  0  0  0  0
 24 13  1  0  0  0  0
 26 27  1  0  0  0  0
 28 11  1  0  0  0  0
 29 28  1  0  0  0  0
 30 31  1  0  0  0  0
 30 28  1  0  0  0  0
 31 32  1  0  0  0  0
 32 33  2  0  0  0  0
 34 33  1  0  0  0  0
 35 34  2  0  0  0  0
 36 35  1  0  0  0  0
 36 31  2  0  0  0  0
M  END
>  <minimizedAffinity>
-5.93572617

$$$$
