
 OpenBabel09122222393D

 36 40  0  0  1  0  0  0  0  0999 V2000
    9.8070    3.3900   -0.1130 O   0  0  0  0  0  0  0  0  0  0  0  0
    9.9460    2.8380    0.9860 C   0  0  0  0  0  0  0  0  0  0  0  0
   10.2910    3.6800    2.1750 C   0  0  0  0  0  0  0  0  0  0  0  0
   10.4260    3.0810    3.3740 C   0  0  0  0  0  0  0  0  0  0  0  0
   10.1600    1.6400    3.5660 C   0  0  0  0  0  0  0  0  0  0  0  0
   10.1310    1.0380    4.8380 C   0  0  0  0  0  3  0  0  0  0  0  0
    9.8910   -0.3310    4.9810 C   0  0  0  0  0  3  0  0  0  0  0  0
    9.6580   -1.1170    3.8590 C   0  0  0  0  0  3  0  0  0  0  0  0
    9.6480   -0.5300    2.5950 C   0  0  0  0  0  3  0  0  0  0  0  0
    9.8880    0.8460    2.4390 C   0  0  0  0  0  0  0  0  0  0  0  0
    9.8290    1.4640    1.1640 N   0  0  0  0  0  0  0  0  0  0  0  0
   10.4860    5.1600    1.9340 C   0  0  1  0  0  3  0  0  0  0  0  0
   10.2410    6.0250    2.8880 N   0  0  0  0  0  0  0  0  0  0  0  0
   10.3820    7.6200    2.7920 S   0  0  0  0  0  0  0  0  0  0  0  0
    9.0630    8.2170    2.8580 O   0  0  0  0  0  0  0  0  0  0  0  0
   11.4120    8.0600    3.7130 O   0  0  0  0  0  0  0  0  0  0  0  0
   10.9920    7.9840    1.1810 C   0  0  0  0  0  0  0  0  0  0  0  0
   11.2480    9.3130    0.8270 C   0  0  0  0  0  3  0  0  0  0  0  0
   11.7290    9.5940   -0.4490 C   0  0  0  0  0  3  0  0  0  0  0  0
   11.9460    8.5520   -1.3510 C   0  0  0  0  0  3  0  0  0  0  0  0
   11.6840    7.2290   -0.9780 C   0  0  0  0  0  3  0  0  0  0  0  0
   11.2030    6.9320    0.3010 C   0  0  0  0  0  0  0  0  0  0  0  0
   10.9440    5.6210    0.6800 N   0  0  0  0  0  0  0  0  0  0  0  0
    9.9270    5.6680    3.7850 H   0  0  0  0  0  0  0  0  0  0  0  0
   11.1260    4.8810   -0.0020 H   0  0  0  0  0  0  0  0  0  0  0  0
   10.8520    3.8070    4.4780 O   0  0  0  0  0  0  0  0  0  0  0  0
   11.3300    3.2060    5.0810 H   0  0  0  0  0  0  0  0  0  0  0  0
    9.5280    0.6710    0.0200 N   0  0  0  0  0  0  0  0  0  0  0  0
    8.9930    1.2590   -0.6290 H   0  0  0  0  0  0  0  0  0  0  0  0
   10.7490    0.2470   -0.6780 C   0  0  0  0  0  2  0  0  0  0  0  0
   10.8140   -1.2580   -0.7680 C   0  0  0  0  0  0  0  0  0  0  0  0
   11.8060   -1.8830   -1.5370 C   0  0  0  0  0  3  0  0  0  0  0  0
   11.8790   -3.2750   -1.6050 C   0  0  0  0  0  3  0  0  0  0  0  0
   10.9650   -4.0560   -0.9010 C   0  0  0  0  0  3  0  0  0  0  0  0
    9.9780   -3.4470   -0.1270 C   0  0  0  0  0  3  0  0  0  0  0  0
    9.9050   -2.0550   -0.0570 C   0  0  0  0  0  3  0  0  0  0  0  0
  1  2  2  0  0  0  0
  2 11  1  0  0  0  0
  2  3  1  0  0  0  0
  3  4  2  0  0  0  0
  4  5  1  0  0  0  0
  4 26  1  0  0  0  0
  5  6  1  0  0  0  0
  6  7  2  0  0  0  0
  8  7  1  0  0  0  0
  9  8  2  0  0  0  0
 10  9  1  0  0  0  0
 10  5  2  0  0  0  0
 11 10  1  0  0  0  0
 12  3  1  1  0  0  0
 12 13  1  0  0  0  0
 13 24  1  0  0  0  0
 14 15  2  0  0  0  0
 14 13  1  0  0  0  0
 14 16  2  0  0  0  0
 17 14  1  0  0  0  0
 18 17  1  0  0  0  0
 19 18  2  0  0  0  0
 20 21  2  0  0  0  0
 20 19  1  0  0  0  0
 21 22  1  0  0  0  0
 22 23  1  0  0  0  0
 22 17  2  0  0  0  0
 23 12  1  0  0  0  0
 25 23  1  0  0  0  0
 26 27  1  0  0  0  0
 28 11  1  0  0  0  0
 29 28  1  0  0  0  0
 30 28  1  0  0  0  0
 31 30  1  0  0  0  0
 31 36  1  0  0  0  0
 32 31  2  0  0  0  0
 33 32  1  0  0  0  0
 33 34  2  0  0  0  0
 34 35  1  0  0  0  0
 35 36  2  0  0  0  0
M  END
>  <minimizedAffinity>
-6.15298796

$$$$
