
 OpenBabel09122222393D

 36 40  0  0  1  0  0  0  0  0999 V2000
    8.0330   -2.5250    2.9620 O   0  0  0  0  0  0  0  0  0  0  0  0
    8.6680   -2.5200    1.9000 C   0  0  0  0  0  0  0  0  0  0  0  0
    8.5070   -3.6750    0.9620 C   0  0  0  0  0  0  0  0  0  0  0  0
    9.1860   -3.6630   -0.2010 C   0  0  0  0  0  0  0  0  0  0  0  0
   10.0120   -2.5100   -0.6160 C   0  0  0  0  0  0  0  0  0  0  0  0
   10.5870   -2.4110   -1.8970 C   0  0  0  0  0  3  0  0  0  0  0  0
   11.3750   -1.3120   -2.2490 C   0  0  0  0  0  3  0  0  0  0  0  0
   11.5870   -0.2870   -1.3350 C   0  0  0  0  0  3  0  0  0  0  0  0
   10.9950   -0.3520   -0.0750 C   0  0  0  0  0  3  0  0  0  0  0  0
   10.2010   -1.4520    0.2900 C   0  0  0  0  0  0  0  0  0  0  0  0
    9.5520   -1.5060    1.5500 N   0  0  0  0  0  0  0  0  0  0  0  0
    7.5960   -4.7990    1.4060 C   0  0  1  0  0  3  0  0  0  0  0  0
    7.8400   -6.0330    1.0400 N   0  0  0  0  0  0  0  0  0  0  0  0
    6.9700   -7.3290    1.4100 S   0  0  0  0  0  0  0  0  0  0  0  0
    6.3320   -7.8300    0.2090 O   0  0  0  0  0  0  0  0  0  0  0  0
    7.7750   -8.2250    2.2170 O   0  0  0  0  0  0  0  0  0  0  0  0
    5.6620   -6.7870    2.4560 C   0  0  0  0  0  0  0  0  0  0  0  0
    4.7570   -7.7230    2.9680 C   0  0  0  0  0  3  0  0  0  0  0  0
    3.7240   -7.2860    3.7930 C   0  0  0  0  0  3  0  0  0  0  0  0
    3.6070   -5.9300    4.0950 C   0  0  0  0  0  3  0  0  0  0  0  0
    4.5230   -5.0090    3.5750 C   0  0  0  0  0  3  0  0  0  0  0  0
    5.5660   -5.4330    2.7460 C   0  0  0  0  0  0  0  0  0  0  0  0
    6.4810   -4.5240    2.2280 N   0  0  0  0  0  0  0  0  0  0  0  0
    8.6560   -6.2060    0.4620 H   0  0  0  0  0  0  0  0  0  0  0  0
    6.3720   -3.5400    2.4800 H   0  0  0  0  0  0  0  0  0  0  0  0
    9.1510   -4.7630   -1.0480 O   0  0  0  0  0  0  0  0  0  0  0  0
    9.9910   -4.8020   -1.5440 H   0  0  0  0  0  0  0  0  0  0  0  0
    9.7170   -0.4260    2.4640 N   0  0  0  0  0  0  0  0  0  0  0  0
   10.7120   -0.1740    2.4640 H   0  0  0  0  0  0  0  0  0  0  0  0
    8.9640    0.7610    2.0360 C   0  0  0  0  0  2  0  0  0  0  0  0
    9.7840    2.0110    2.2370 C   0  0  0  0  0  0  0  0  0  0  0  0
   10.4090    2.2620    3.4680 C   0  0  0  0  0  3  0  0  0  0  0  0
   11.1840    3.4080    3.6490 C   0  0  0  0  0  3  0  0  0  0  0  0
   11.3450    4.3140    2.6020 C   0  0  0  0  0  3  0  0  0  0  0  0
   10.7350    4.0720    1.3720 C   0  0  0  0  0  3  0  0  0  0  0  0
    9.9610    2.9260    1.1890 C   0  0  0  0  0  3  0  0  0  0  0  0
  2  1  2  0  0  0  0
  3  2  1  0  0  0  0
  4  3  2  0  0  0  0
  5  4  1  0  0  0  0
  5 10  1  0  0  0  0
  6  5  2  0  0  0  0
  7  6  1  0  0  0  0
  7  8  2  0  0  0  0
  8  9  1  0  0  0  0
  9 10  2  0  0  0  0
 10 11  1  0  0  0  0
 11  2  1  0  0  0  0
 11 28  1  0  0  0  0
 12  3  1  1  0  0  0
 12 23  1  0  0  0  0
 13 12  1  0  0  0  0
 13 14  1  0  0  0  0
 14 16  2  0  0  0  0
 14 17  1  0  0  0  0
 15 14  2  0  0  0  0
 17 22  2  0  0  0  0
 17 18  1  0  0  0  0
 18 19  2  0  0  0  0
 19 20  1  0  0  0  0
 21 20  2  0  0  0  0
 22 21  1  0  0  0  0
 23 25  1  0  0  0  0
 23 22  1  0  0  0  0
 24 13  1  0  0  0  0
 26  4  1  0  0  0  0
 27 26  1  0  0  0  0
 28 29  1  0  0  0  0
 30 31  1  0  0  0  0
 30 28  1  0  0  0  0
 31 32  1  0  0  0  0
 32 33  2  0  0  0  0
 34 33  1  0  0  0  0
 35 34  2  0  0  0  0
 36 35  1  0  0  0  0
 36 31  2  0  0  0  0
M  END
>  <minimizedAffinity>
-6.66460705

$$$$
