
 OpenBabel09122222393D

 36 40  0  0  1  0  0  0  0  0999 V2000
    9.1400    4.6520   -0.3300 O   0  0  0  0  0  0  0  0  0  0  0  0
    9.6710    5.0780    0.7030 C   0  0  0  0  0  0  0  0  0  0  0  0
   10.2760    4.0960    1.6580 C   0  0  0  0  0  0  0  0  0  0  0  0
   10.8680    4.5610    2.7750 C   0  0  0  0  0  0  0  0  0  0  0  0
   11.0160    6.0070    3.0410 C   0  0  0  0  0  0  0  0  0  0  0  0
   11.7790    6.5070    4.1130 C   0  0  0  0  0  3  0  0  0  0  0  0
   11.8850    7.8810    4.3430 C   0  0  0  0  0  3  0  0  0  0  0  0
   11.2460    8.7780    3.4970 C   0  0  0  0  0  3  0  0  0  0  0  0
   10.5160    8.3020    2.4100 C   0  0  0  0  0  3  0  0  0  0  0  0
   10.4020    6.9220    2.1690 C   0  0  0  0  0  0  0  0  0  0  0  0
    9.7060    6.4280    1.0370 N   0  0  0  0  0  0  0  0  0  0  0  0
   10.1550    2.6310    1.3040 C   0  0  1  0  0  3  0  0  0  0  0  0
    9.5190    1.8070    2.0990 N   0  0  0  0  0  0  0  0  0  0  0  0
    9.3140    0.2310    1.8780 S   0  0  0  0  0  0  0  0  0  0  0  0
   10.0790   -0.4900    2.8770 O   0  0  0  0  0  0  0  0  0  0  0  0
    7.9000   -0.0460    1.7240 O   0  0  0  0  0  0  0  0  0  0  0  0
   10.0530   -0.1690    0.3310 C   0  0  0  0  0  0  0  0  0  0  0  0
    9.9920   -1.4860   -0.1400 C   0  0  0  0  0  3  0  0  0  0  0  0
   10.5800   -1.7950   -1.3640 C   0  0  0  0  0  3  0  0  0  0  0  0
   11.2170   -0.7940   -2.0980 C   0  0  0  0  0  3  0  0  0  0  0  0
   11.2660    0.5170   -1.6100 C   0  0  0  0  0  3  0  0  0  0  0  0
   10.6790    0.8420   -0.3840 C   0  0  0  0  0  0  0  0  0  0  0  0
   10.7210    2.1420    0.1050 N   0  0  0  0  0  0  0  0  0  0  0  0
    9.1070    2.1850    2.9470 H   0  0  0  0  0  0  0  0  0  0  0  0
   11.1850    2.8520   -0.4640 H   0  0  0  0  0  0  0  0  0  0  0  0
   11.3430    3.6810    3.7390 O   0  0  0  0  0  0  0  0  0  0  0  0
   11.2930    4.1170    4.6100 H   0  0  0  0  0  0  0  0  0  0  0  0
    9.1040    7.3490    0.1330 N   0  0  0  0  0  0  0  0  0  0  0  0
    8.9510    8.2250    0.6450 H   0  0  0  0  0  0  0  0  0  0  0  0
    9.9920    7.6520   -0.9980 C   0  0  0  0  0  2  0  0  0  0  0  0
    9.8350    9.0910   -1.4250 C   0  0  0  0  0  0  0  0  0  0  0  0
    9.9860    9.4530   -2.7720 C   0  0  0  0  0  3  0  0  0  0  0  0
    9.8220   10.7810   -3.1710 C   0  0  0  0  0  3  0  0  0  0  0  0
    9.5020   11.7580   -2.2300 C   0  0  0  0  0  3  0  0  0  0  0  0
    9.3420   11.4080   -0.8900 C   0  0  0  0  0  3  0  0  0  0  0  0
    9.5040   10.0810   -0.4890 C   0  0  0  0  0  3  0  0  0  0  0  0
  1  2  2  0  0  0  0
  2 11  1  0  0  0  0
  2  3  1  0  0  0  0
  3  4  2  0  0  0  0
  4  5  1  0  0  0  0
  4 26  1  0  0  0  0
  5  6  1  0  0  0  0
  6  7  2  0  0  0  0
  8  7  1  0  0  0  0
  9  8  2  0  0  0  0
 10  9  1  0  0  0  0
 10  5  2  0  0  0  0
 11 10  1  0  0  0  0
 12  3  1  6  0  0  0
 12 13  1  0  0  0  0
 13 24  1  0  0  0  0
 14 13  1  0  0  0  0
 14 15  2  0  0  0  0
 16 14  2  0  0  0  0
 17 14  1  0  0  0  0
 18 17  1  0  0  0  0
 19 18  2  0  0  0  0
 20 21  2  0  0  0  0
 20 19  1  0  0  0  0
 21 22  1  0  0  0  0
 22 23  1  0  0  0  0
 22 17  2  0  0  0  0
 23 12  1  0  0  0  0
 25 23  1  0  0  0  0
 26 27  1  0  0  0  0
 28 29  1  0  0  0  0
 28 11  1  0  0  0  0
 30 28  1  0  0  0  0
 31 30  1  0  0  0  0
 31 36  1  0  0  0  0
 32 31  2  0  0  0  0
 33 32  1  0  0  0  0
 33 34  2  0  0  0  0
 34 35  1  0  0  0  0
 35 36  2  0  0  0  0
M  END
>  <minimizedAffinity>
-6.04764414

$$$$
