
 OpenBabel09122222393D

 36 40  0  0  1  0  0  0  0  0999 V2000
   10.4500    8.0920   -0.5920 O   0  0  0  0  0  0  0  0  0  0  0  0
   10.6460    8.9700    0.2570 C   0  0  0  0  0  0  0  0  0  0  0  0
   10.2560   10.3790   -0.0640 C   0  0  0  0  0  0  0  0  0  0  0  0
   10.4540   11.3320    0.8670 C   0  0  1  0  0  3  0  0  0  0  0  0
   10.9590   11.0170    2.2190 C   0  0  0  0  0  0  0  0  0  0  0  0
   11.0100   11.9720    3.2520 C   0  0  0  0  0  3  0  0  0  0  0  0
   11.5080   11.6410    4.5150 C   0  0  0  0  0  3  0  0  0  0  0  0
   11.9470   10.3480    4.7720 C   0  0  0  0  0  3  0  0  0  0  0  0
   11.8710    9.3810    3.7710 C   0  0  0  0  0  3  0  0  0  0  0  0
   11.3720    9.7020    2.4980 C   0  0  0  0  0  0  0  0  0  0  0  0
   11.2420    8.7150    1.4880 N   0  0  0  0  0  0  0  0  0  0  0  0
    9.6800   10.6360   -1.4380 C   0  0  0  0  0  0  0  0  0  0  0  0
    9.4990   11.8630   -1.8620 N   0  0  0  0  0  0  0  0  0  0  0  0
    8.8900   12.3040   -3.2790 S   0  0  0  0  0  0  0  0  0  0  0  0
    7.5950   12.9220   -3.0660 O   0  0  0  0  0  0  0  0  0  0  0  0
    9.9050   13.0150   -4.0300 O   0  0  0  0  0  0  0  0  0  0  0  0
    8.5700   10.8270   -4.1820 C   0  0  0  0  0  0  0  0  0  0  0  0
    8.0630   10.9120   -5.4840 C   0  0  0  0  0  3  0  0  0  0  0  0
    7.8120    9.7400   -6.1910 C   0  0  0  0  0  3  0  0  0  0  0  0
    8.0680    8.5050   -5.5960 C   0  0  0  0  0  3  0  0  0  0  0  0
    8.5770    8.4400   -4.2940 C   0  0  0  0  0  3  0  0  0  0  0  0
    8.8350    9.6090   -3.5720 C   0  0  0  0  0  0  0  0  0  0  0  0
    9.3430    9.5530   -2.2800 N   0  0  0  0  0  0  0  0  0  0  0  0
    9.7640   12.6240   -1.2450 H   0  0  0  0  0  0  0  0  0  0  0  0
    9.5310    8.6310   -1.8800 H   0  0  0  0  0  0  0  0  0  0  0  0
   10.2090   12.6670    0.5700 O   0  0  0  0  0  0  0  0  0  0  0  0
   10.8060   13.2200    1.1090 H   0  0  0  0  0  0  0  0  0  0  0  0
   11.6320    7.3750    1.7700 N   0  0  0  0  0  0  0  0  0  0  0  0
   12.4050    7.4170    2.4450 H   0  0  0  0  0  0  0  0  0  0  0  0
   10.5420    6.6170    2.3980 C   0  0  0  0  0  2  0  0  0  0  0  0
   10.5170    5.1990    1.8840 C   0  0  0  0  0  0  0  0  0  0  0  0
   10.8810    4.1330    2.7190 C   0  0  0  0  0  3  0  0  0  0  0  0
   10.8400    2.8180    2.2500 C   0  0  0  0  0  3  0  0  0  0  0  0
   10.4300    2.5560    0.9440 C   0  0  0  0  0  3  0  0  0  0  0  0
   10.0580    3.6070    0.1070 C   0  0  0  0  0  3  0  0  0  0  0  0
   10.0980    4.9210    0.5750 C   0  0  0  0  0  3  0  0  0  0  0  0
  1  2  2  0  0  0  0
  2 11  1  0  0  0  0
  3  2  1  0  0  0  0
  3  4  1  0  0  0  0
  4 26  1  6  0  0  0
  4  5  1  0  0  0  0
  5 10  2  0  0  0  0
  5  6  1  0  0  0  0
  6  7  2  0  0  0  0
  7  8  1  0  0  0  0
  9  8  2  0  0  0  0
 10  9  1  0  0  0  0
 11 28  1  0  0  0  0
 11 10  1  0  0  0  0
 12  3  2  0  0  0  0
 13 12  1  0  0  0  0
 13 24  1  0  0  0  0
 14 15  2  0  0  0  0
 14 13  1  0  0  0  0
 16 14  2  0  0  0  0
 17 22  1  0  0  0  0
 17 14  1  0  0  0  0
 18 17  2  0  0  0  0
 19 20  2  0  0  0  0
 19 18  1  0  0  0  0
 20 21  1  0  0  0  0
 21 22  2  0  0  0  0
 22 23  1  0  0  0  0
 23 25  1  0  0  0  0
 23 12  1  0  0  0  0
 26 27  1  0  0  0  0
 28 30  1  0  0  0  0
 28 29  1  0  0  0  0
 31 30  1  0  0  0  0
 31 32  1  0  0  0  0
 33 32  2  0  0  0  0
 34 33  1  0  0  0  0
 35 36  1  0  0  0  0
 35 34  2  0  0  0  0
 36 31  2  0  0  0  0
M  END
>  <minimizedAffinity>
-5.73310852

$$$$
