
 OpenBabel09132204463D

 27 29  0  0  0  0  0  0  0  0999 V2000
    1.0090    6.6120   -8.9830 C   0  0  0  0  0  0  0  0  0  0  0  0
    0.0760    7.3770   -9.4350 N   0  0  0  0  0  0  0  0  0  0  0  0
   -1.2080    7.1180   -9.0010 C   0  0  0  0  0  0  0  0  0  0  0  0
   -1.5380    6.0920   -8.1940 C   0  0  0  0  0  0  0  0  0  0  0  0
   -0.4450    5.2110   -7.7300 C   0  0  0  0  0  0  0  0  0  0  0  0
   -0.6390    4.2390   -7.0110 O   0  0  0  0  0  0  0  0  0  0  0  0
    0.8040    5.5600   -8.1520 N   0  0  0  0  0  0  0  0  0  0  0  0
    1.5850    4.9890   -7.8640 H   0  0  0  0  0  0  0  0  0  0  0  0
   -2.2330    8.0680   -9.4800 C   0  0  0  0  0  0  0  0  0  0  0  0
   -3.5730    7.6630   -9.5610 C   0  0  0  0  0  3  0  0  0  0  0  0
   -4.5430    8.5490  -10.0310 C   0  0  0  0  0  0  0  0  0  0  0  0
   -6.1840    8.0400  -10.1210 Cl  0  0  0  0  0  0  0  0  0  0  0  0
   -4.1970    9.8370  -10.4310 C   0  0  0  0  0  3  0  0  0  0  0  0
   -2.8640   10.2340  -10.3630 C   0  0  0  0  0  0  0  0  0  0  0  0
   -2.4200   11.8170  -10.8720 Cl  0  0  0  0  0  0  0  0  0  0  0  0
   -1.8820    9.3600   -9.8970 C   0  0  0  0  0  3  0  0  0  0  0  0
   -2.9490    5.8190   -7.6970 C   0  0  0  0  0  2  0  0  0  0  0  0
   -4.1190    5.5940   -7.2850 N   0  0  0  0  0  1  0  0  0  0  0  0
    2.6730    6.8610   -9.3880 S   0  0  0  0  0  0  0  0  0  0  0  0
    3.0130    5.2490  -10.1550 C   0  0  0  0  0  2  0  0  0  0  0  0
    2.1970    3.6250   -5.4460 C   0  0  0  0  0  1  0  0  0  0  0  0
    2.6130    3.3510   -6.8610 C   0  0  0  0  0  0  0  0  0  0  0  0
    3.0900    2.0870   -7.2250 C   0  0  0  0  0  3  0  0  0  0  0  0
    3.5040    1.8370   -8.5330 C   0  0  0  0  0  3  0  0  0  0  0  0
    3.4610    2.8530   -9.4850 C   0  0  0  0  0  3  0  0  0  0  0  0
    3.0060    4.1340   -9.1380 C   0  0  0  0  0  0  0  0  0  0  0  0
    2.5850    4.3730   -7.8210 C   0  0  0  0  0  3  0  0  0  0  0  0
  1  7  1  0  0  0  0
  2  3  1  0  0  0  0
  2  1  2  0  0  0  0
  3  4  2  0  0  0  0
  4  5  1  0  0  0  0
  4 17  1  0  0  0  0
  5  6  2  0  0  0  0
  7  8  1  0  0  0  0
  7  5  1  0  0  0  0
  9  3  1  0  0  0  0
 10  9  1  0  0  0  0
 11 10  2  0  0  0  0
 12 11  1  0  0  0  0
 13 14  2  0  0  0  0
 13 11  1  0  0  0  0
 14 16  1  0  0  0  0
 15 14  1  0  0  0  0
 16  9  2  0  0  0  0
 17 18  1  0  0  0  0
 19  1  1  0  0  0  0
 20 19  1  0  0  0  0
 20 26  1  0  0  0  0
 22 21  1  0  0  0  0
 23 22  1  0  0  0  0
 24 23  2  0  0  0  0
 25 26  2  0  0  0  0
 25 24  1  0  0  0  0
 26 27  1  0  0  0  0
 27 22  2  0  0  0  0
M  END
>  <minimizedAffinity>
57.9365807

$$$$
