
 OpenBabel09132204463D

 27 29  0  0  0  0  0  0  0  0999 V2000
    0.4060    7.2440   -9.1040 C   0  0  0  0  0  0  0  0  0  0  0  0
   -0.2360    6.2790   -8.5400 N   0  0  0  0  0  0  0  0  0  0  0  0
   -1.6000    6.2360   -8.7410 C   0  0  0  0  0  0  0  0  0  0  0  0
   -2.2900    7.1630   -9.4330 C   0  0  0  0  0  0  0  0  0  0  0  0
   -1.5230    8.2780  -10.0290 C   0  0  0  0  0  0  0  0  0  0  0  0
   -2.0540    9.1830  -10.6590 O   0  0  0  0  0  0  0  0  0  0  0  0
   -0.1740    8.2260   -9.8380 N   0  0  0  0  0  0  0  0  0  0  0  0
    0.3950    8.9650  -10.2240 H   0  0  0  0  0  0  0  0  0  0  0  0
   -2.2830    5.0700   -8.1440 C   0  0  0  0  0  0  0  0  0  0  0  0
   -3.5410    5.2320   -7.5470 C   0  0  0  0  0  3  0  0  0  0  0  0
   -4.1820    4.1390   -6.9640 C   0  0  0  0  0  0  0  0  0  0  0  0
   -5.7280    4.3500   -6.2380 Cl  0  0  0  0  0  0  0  0  0  0  0  0
   -3.5850    2.8810   -6.9610 C   0  0  0  0  0  3  0  0  0  0  0  0
   -2.3300    2.7240   -7.5420 C   0  0  0  0  0  0  0  0  0  0  0  0
   -1.5720    1.1790   -7.5280 Cl  0  0  0  0  0  0  0  0  0  0  0  0
   -1.6740    3.8070   -8.1280 C   0  0  0  0  0  3  0  0  0  0  0  0
   -3.7890    7.1040   -9.6750 C   0  0  0  0  0  2  0  0  0  0  0  0
   -5.0330    7.0550   -9.8750 N   0  0  0  0  0  1  0  0  0  0  0  0
    2.1270    7.3860   -8.9930 S   0  0  0  0  0  0  0  0  0  0  0  0
    2.5850    5.8690   -9.8810 C   0  0  0  0  0  2  0  0  0  0  0  0
    3.7550    1.0240   -9.0880 C   0  0  0  0  0  1  0  0  0  0  0  0
    3.3090    2.3560   -8.5610 C   0  0  0  0  0  0  0  0  0  0  0  0
    2.9460    2.4990   -7.2170 C   0  0  0  0  0  3  0  0  0  0  0  0
    2.5050    3.7280   -6.7300 C   0  0  0  0  0  3  0  0  0  0  0  0
    2.4070    4.8230   -7.5860 C   0  0  0  0  0  3  0  0  0  0  0  0
    2.7450    4.6990   -8.9420 C   0  0  0  0  0  0  0  0  0  0  0  0
    3.1950    3.4580   -9.4200 C   0  0  0  0  0  3  0  0  0  0  0  0
  1 19  1  0  0  0  0
  1  2  2  0  0  0  0
  3  2  1  0  0  0  0
  3  9  1  0  0  0  0
  4  3  2  0  0  0  0
  5  7  1  0  0  0  0
  5  4  1  0  0  0  0
  6  5  2  0  0  0  0
  7  1  1  0  0  0  0
  8  7  1  0  0  0  0
  9 16  2  0  0  0  0
  9 10  1  0  0  0  0
 10 11  2  0  0  0  0
 11 13  1  0  0  0  0
 11 12  1  0  0  0  0
 14 15  1  0  0  0  0
 14 13  2  0  0  0  0
 16 14  1  0  0  0  0
 17  4  1  0  0  0  0
 18 17  1  0  0  0  0
 20 19  1  0  0  0  0
 20 26  1  0  0  0  0
 21 22  1  0  0  0  0
 22 23  1  0  0  0  0
 23 24  2  0  0  0  0
 25 24  1  0  0  0  0
 26 25  2  0  0  0  0
 27 26  1  0  0  0  0
 27 22  2  0  0  0  0
M  END
>  <minimizedAffinity>
58.3475609

$$$$
