
 OpenBabel09132204463D

 27 29  0  0  0  0  0  0  0  0999 V2000
   -1.1640    6.4500   -8.2780 C   0  0  0  0  0  0  0  0  0  0  0  0
   -0.5950    5.4510   -7.6960 N   0  0  0  0  0  0  0  0  0  0  0  0
    0.7280    5.2170   -8.0090 C   0  0  0  0  0  0  0  0  0  0  0  0
    1.4250    5.9280   -8.9150 C   0  0  0  0  0  0  0  0  0  0  0  0
    0.7250    7.0410   -9.5920 C   0  0  0  0  0  0  0  0  0  0  0  0
    1.2600    7.7360  -10.4460 O   0  0  0  0  0  0  0  0  0  0  0  0
   -0.5620    7.2490   -9.1930 N   0  0  0  0  0  0  0  0  0  0  0  0
   -1.0840    7.9970   -9.6260 H   0  0  0  0  0  0  0  0  0  0  0  0
    1.3620    4.1130   -7.2600 C   0  0  0  0  0  0  0  0  0  0  0  0
    2.4820    3.4620   -7.7950 C   0  0  0  0  0  3  0  0  0  0  0  0
    3.0730    2.4050   -7.1020 C   0  0  0  0  0  0  0  0  0  0  0  0
    4.4490    1.6170   -7.7700 Cl  0  0  0  0  0  0  0  0  0  0  0  0
    2.5590    1.9790   -5.8800 C   0  0  0  0  0  3  0  0  0  0  0  0
    1.4390    2.6170   -5.3550 C   0  0  0  0  0  0  0  0  0  0  0  0
    0.7830    2.0890   -3.8550 Cl  0  0  0  0  0  0  0  0  0  0  0  0
    0.8350    3.6740   -6.0360 C   0  0  0  0  0  3  0  0  0  0  0  0
    2.8890    5.6870   -9.2430 C   0  0  0  0  0  2  0  0  0  0  0  0
    4.1040    5.4860   -9.5160 N   0  0  0  0  0  1  0  0  0  0  0  0
   -2.7980    6.9020   -7.9320 S   0  0  0  0  0  0  0  0  0  0  0  0
   -3.4120    7.0390   -9.6360 C   0  0  0  0  0  2  0  0  0  0  0  0
   -1.8890   11.8150   -9.0450 C   0  0  0  0  0  1  0  0  0  0  0  0
   -2.4580   10.7300   -9.9110 C   0  0  0  0  0  0  0  0  0  0  0  0
   -2.8790   11.0150  -11.2150 C   0  0  0  0  0  3  0  0  0  0  0  0
   -3.4340   10.0160  -12.0130 C   0  0  0  0  0  3  0  0  0  0  0  0
   -3.5880    8.7260  -11.5110 C   0  0  0  0  0  3  0  0  0  0  0  0
   -3.1920    8.4220  -10.2000 C   0  0  0  0  0  0  0  0  0  0  0  0
   -2.6290    9.4330   -9.4070 C   0  0  0  0  0  3  0  0  0  0  0  0
  1 19  1  0  0  0  0
  1  2  2  0  0  0  0
  3  2  1  0  0  0  0
  3  9  1  0  0  0  0
  4  3  2  0  0  0  0
  5  7  1  0  0  0  0
  5  4  1  0  0  0  0
  6  5  2  0  0  0  0
  7  1  1  0  0  0  0
  8  7  1  0  0  0  0
  9 16  1  0  0  0  0
 10  9  2  0  0  0  0
 10 11  1  0  0  0  0
 11 13  2  0  0  0  0
 12 11  1  0  0  0  0
 13 14  1  0  0  0  0
 14 15  1  0  0  0  0
 16 14  2  0  0  0  0
 17  4  1  0  0  0  0
 18 17  1  0  0  0  0
 20 19  1  0  0  0  0
 22 27  1  0  0  0  0
 22 21  1  0  0  0  0
 23 22  2  0  0  0  0
 24 25  2  0  0  0  0
 24 23  1  0  0  0  0
 25 26  1  0  0  0  0
 26 20  1  0  0  0  0
 26 27  2  0  0  0  0
M  END
>  <minimizedAffinity>
56.2840881

$$$$
