
 OpenBabel09132204463D

 27 29  0  0  0  0  0  0  0  0999 V2000
    0.3970    7.2450   -9.1090 C   0  0  0  0  0  0  0  0  0  0  0  0
   -0.2430    6.2920   -8.5230 N   0  0  0  0  0  0  0  0  0  0  0  0
   -1.6070    6.2430   -8.7200 C   0  0  0  0  0  0  0  0  0  0  0  0
   -2.2990    7.1540   -9.4310 C   0  0  0  0  0  0  0  0  0  0  0  0
   -1.5350    8.2560  -10.0530 C   0  0  0  0  0  0  0  0  0  0  0  0
   -2.0680    9.1470  -10.7020 O   0  0  0  0  0  0  0  0  0  0  0  0
   -0.1850    8.2090   -9.8630 N   0  0  0  0  0  0  0  0  0  0  0  0
    0.3820    8.9400  -10.2670 H   0  0  0  0  0  0  0  0  0  0  0  0
   -2.2880    5.0900   -8.0970 C   0  0  0  0  0  0  0  0  0  0  0  0
   -1.6700    3.8320   -8.1010 C   0  0  0  0  0  3  0  0  0  0  0  0
   -2.3160    2.7340   -7.5310 C   0  0  0  0  0  0  0  0  0  0  0  0
   -1.5440    1.1970   -7.5400 Cl  0  0  0  0  0  0  0  0  0  0  0  0
   -3.5780    2.8690   -6.9590 C   0  0  0  0  0  3  0  0  0  0  0  0
   -4.1980    4.1160   -6.9680 C   0  0  0  0  0  0  0  0  0  0  0  0
   -5.7660    4.2920   -6.2810 Cl  0  0  0  0  0  0  0  0  0  0  0  0
   -3.5660    5.2230   -7.5350 C   0  0  0  0  0  3  0  0  0  0  0  0
   -3.7990    7.0880   -9.6680 C   0  0  0  0  0  2  0  0  0  0  0  0
   -5.0430    7.0330   -9.8650 N   0  0  0  0  0  1  0  0  0  0  0  0
    2.1180    7.3910   -9.0050 S   0  0  0  0  0  0  0  0  0  0  0  0
    2.5760    5.8670   -9.8820 C   0  0  0  0  0  2  0  0  0  0  0  0
    3.7510    1.0290   -9.0510 C   0  0  0  0  0  1  0  0  0  0  0  0
    3.3010    2.3640   -8.5350 C   0  0  0  0  0  0  0  0  0  0  0  0
    2.9340    2.5160   -7.1930 C   0  0  0  0  0  3  0  0  0  0  0  0
    2.4900    3.7470   -6.7170 C   0  0  0  0  0  3  0  0  0  0  0  0
    2.3920    4.8370   -7.5800 C   0  0  0  0  0  3  0  0  0  0  0  0
    2.7350    4.7030   -8.9340 C   0  0  0  0  0  0  0  0  0  0  0  0
    3.1880    3.4600   -9.4020 C   0  0  0  0  0  3  0  0  0  0  0  0
  1 19  1  0  0  0  0
  1  2  2  0  0  0  0
  3  2  1  0  0  0  0
  3  9  1  0  0  0  0
  4  3  2  0  0  0  0
  5  7  1  0  0  0  0
  5  4  1  0  0  0  0
  6  5  2  0  0  0  0
  7  1  1  0  0  0  0
  8  7  1  0  0  0  0
  9 16  1  0  0  0  0
 10  9  2  0  0  0  0
 10 11  1  0  0  0  0
 11 13  2  0  0  0  0
 12 11  1  0  0  0  0
 14 13  1  0  0  0  0
 14 15  1  0  0  0  0
 16 14  2  0  0  0  0
 17  4  1  0  0  0  0
 18 17  1  0  0  0  0
 20 19  1  0  0  0  0
 20 26  1  0  0  0  0
 21 22  1  0  0  0  0
 22 23  1  0  0  0  0
 23 24  2  0  0  0  0
 25 24  1  0  0  0  0
 26 25  2  0  0  0  0
 27 26  1  0  0  0  0
 27 22  2  0  0  0  0
M  END
>  <minimizedAffinity>
58.2503548

$$$$
