
 OpenBabel09122223123D

 27 29  0  0  0  0  0  0  0  0999 V2000
    1.3850    5.9770   -8.2720 C   0  0  0  0  0  0  0  0  0  0  0  0
    0.9940    5.2800   -7.2610 N   0  0  0  0  0  0  0  0  0  0  0  0
    1.6320    4.0740   -7.0510 C   0  0  0  0  0  0  0  0  0  0  0  0
    2.5810    3.5720   -7.8640 C   0  0  0  0  0  0  0  0  0  0  0  0
    2.9720    4.3830   -9.0370 C   0  0  0  0  0  0  0  0  0  0  0  0
    3.8080    4.0100   -9.8500 O   0  0  0  0  0  0  0  0  0  0  0  0
    2.3410    5.5860   -9.1510 N   0  0  0  0  0  0  0  0  0  0  0  0
    2.5720    6.1770   -9.9360 H   0  0  0  0  0  0  0  0  0  0  0  0
    1.2090    3.3470   -5.8370 C   0  0  0  0  0  0  0  0  0  0  0  0
    0.2080    2.3700   -5.9250 C   0  0  0  0  0  3  0  0  0  0  0  0
   -0.2100    1.6940   -4.7790 C   0  0  0  0  0  0  0  0  0  0  0  0
   -1.4380    0.4940   -4.9020 Cl  0  0  0  0  0  0  0  0  0  0  0  0
    0.3520    1.9800   -3.5380 C   0  0  0  0  0  3  0  0  0  0  0  0
    1.3370    2.9600   -3.4490 C   0  0  0  0  0  0  0  0  0  0  0  0
    2.0260    3.3380   -1.9180 Cl  0  0  0  0  0  0  0  0  0  0  0  0
    1.7650    3.6470   -4.5850 C   0  0  0  0  0  3  0  0  0  0  0  0
    3.3000    2.2550   -7.6210 C   0  0  0  0  0  2  0  0  0  0  0  0
    3.8970    1.1630   -7.4180 N   0  0  0  0  0  1  0  0  0  0  0  0
    0.7220    7.5370   -8.6190 S   0  0  0  0  0  0  0  0  0  0  0  0
   -1.0220    7.1820   -8.2550 C   0  0  0  0  0  2  0  0  0  0  0  0
   -2.7460   11.4300  -10.3670 C   0  0  0  0  0  1  0  0  0  0  0  0
   -2.7810    9.9350  -10.2370 C   0  0  0  0  0  0  0  0  0  0  0  0
   -3.7370    9.1880  -10.9360 C   0  0  0  0  0  3  0  0  0  0  0  0
   -3.7910    7.8030  -10.7970 C   0  0  0  0  0  3  0  0  0  0  0  0
   -2.9010    7.1510   -9.9460 C   0  0  0  0  0  3  0  0  0  0  0  0
   -1.9480    7.8810   -9.2190 C   0  0  0  0  0  0  0  0  0  0  0  0
   -1.8980    9.2750   -9.3720 C   0  0  0  0  0  3  0  0  0  0  0  0
  1  2  2  0  0  0  0
  2  3  1  0  0  0  0
  3  9  1  0  0  0  0
  4 17  1  0  0  0  0
  4  3  2  0  0  0  0
  5  4  1  0  0  0  0
  6  5  2  0  0  0  0
  7  5  1  0  0  0  0
  7  1  1  0  0  0  0
  8  7  1  0  0  0  0
  9 16  1  0  0  0  0
 10  9  2  0  0  0  0
 10 11  1  0  0  0  0
 11 13  2  0  0  0  0
 12 11  1  0  0  0  0
 13 14  1  0  0  0  0
 14 15  1  0  0  0  0
 16 14  2  0  0  0  0
 17 18  1  0  0  0  0
 19  1  1  0  0  0  0
 19 20  1  0  0  0  0
 21 22  1  0  0  0  0
 22 27  1  0  0  0  0
 23 24  1  0  0  0  0
 23 22  2  0  0  0  0
 24 25  2  0  0  0  0
 25 26  1  0  0  0  0
 26 20  1  0  0  0  0
 27 26  2  0  0  0  0
M  END
>  <minimizedAffinity>
55.5247917

$$$$

 OpenBabel09122223123D

 27 29  0  0  0  0  0  0  0  0999 V2000
    1.3060    5.9480   -8.2530 C   0  0  0  0  0  0  0  0  0  0  0  0
    0.9050    5.2630   -7.2370 N   0  0  0  0  0  0  0  0  0  0  0  0
    1.5620    4.0760   -6.9860 C   0  0  0  0  0  0  0  0  0  0  0  0
    2.5410    3.5780   -7.7650 C   0  0  0  0  0  0  0  0  0  0  0  0
    2.9450    4.3720   -8.9440 C   0  0  0  0  0  0  0  0  0  0  0  0
    3.8090    4.0010   -9.7270 O   0  0  0  0  0  0  0  0  0  0  0  0
    2.2920    5.5600   -9.0980 N   0  0  0  0  0  0  0  0  0  0  0  0
    2.5310    6.1400   -9.8890 H   0  0  0  0  0  0  0  0  0  0  0  0
    1.1230    3.3650   -5.7680 C   0  0  0  0  0  0  0  0  0  0  0  0
    1.7160    3.6680   -4.5350 C   0  0  0  0  0  3  0  0  0  0  0  0
    1.3200    2.9860   -3.3840 C   0  0  0  0  0  0  0  0  0  0  0  0
    2.0540    3.3700   -1.8750 Cl  0  0  0  0  0  0  0  0  0  0  0  0
    0.3420    1.9970   -3.4430 C   0  0  0  0  0  3  0  0  0  0  0  0
   -0.2370    1.6860   -4.6700 C   0  0  0  0  0  0  0  0  0  0  0  0
   -1.4330    0.4530   -4.7610 Cl  0  0  0  0  0  0  0  0  0  0  0  0
    0.1490    2.3580   -5.8310 C   0  0  0  0  0  3  0  0  0  0  0  0
    3.2810    2.2820   -7.4760 C   0  0  0  0  0  2  0  0  0  0  0  0
    3.8950    1.2070   -7.2370 N   0  0  0  0  0  1  0  0  0  0  0  0
    0.6200    7.4870   -8.6480 S   0  0  0  0  0  0  0  0  0  0  0  0
   -1.1320    7.0810   -8.3890 C   0  0  0  0  0  2  0  0  0  0  0  0
   -2.6230   11.5130  -10.2890 C   0  0  0  0  0  1  0  0  0  0  0  0
   -2.7520   10.0200  -10.2190 C   0  0  0  0  0  0  0  0  0  0  0  0
   -3.7670    9.3640  -10.9250 C   0  0  0  0  0  3  0  0  0  0  0  0
   -3.9060    7.9800  -10.8410 C   0  0  0  0  0  3  0  0  0  0  0  0
   -3.0420    7.2380  -10.0370 C   0  0  0  0  0  3  0  0  0  0  0  0
   -2.0310    7.8760   -9.3040 C   0  0  0  0  0  0  0  0  0  0  0  0
   -1.8950    9.2700   -9.4010 C   0  0  0  0  0  3  0  0  0  0  0  0
  1  2  2  0  0  0  0
  2  3  1  0  0  0  0
  3  9  1  0  0  0  0
  4 17  1  0  0  0  0
  4  3  2  0  0  0  0
  5  4  1  0  0  0  0
  6  5  2  0  0  0  0
  7  5  1  0  0  0  0
  7  1  1  0  0  0  0
  8  7  1  0  0  0  0
  9 10  1  0  0  0  0
 10 11  2  0  0  0  0
 11 12  1  0  0  0  0
 13 11  1  0  0  0  0
 14 13  2  0  0  0  0
 15 14  1  0  0  0  0
 16  9  2  0  0  0  0
 16 14  1  0  0  0  0
 17 18  1  0  0  0  0
 19 20  1  0  0  0  0
 19  1  1  0  0  0  0
 21 22  1  0  0  0  0
 22 27  1  0  0  0  0
 23 24  1  0  0  0  0
 23 22  2  0  0  0  0
 24 25  2  0  0  0  0
 25 26  1  0  0  0  0
 26 20  1  0  0  0  0
 27 26  2  0  0  0  0
M  END
>  <minimizedAffinity>
55.7753944

$$$$

 OpenBabel09122223123D

 27 29  0  0  0  0  0  0  0  0999 V2000
   -1.1640    6.4500   -8.2780 C   0  0  0  0  0  0  0  0  0  0  0  0
   -0.5950    5.4510   -7.6960 N   0  0  0  0  0  0  0  0  0  0  0  0
    0.7280    5.2170   -8.0090 C   0  0  0  0  0  0  0  0  0  0  0  0
    1.4250    5.9280   -8.9150 C   0  0  0  0  0  0  0  0  0  0  0  0
    0.7250    7.0410   -9.5920 C   0  0  0  0  0  0  0  0  0  0  0  0
    1.2600    7.7360  -10.4460 O   0  0  0  0  0  0  0  0  0  0  0  0
   -0.5620    7.2490   -9.1930 N   0  0  0  0  0  0  0  0  0  0  0  0
   -1.0840    7.9970   -9.6260 H   0  0  0  0  0  0  0  0  0  0  0  0
    1.3620    4.1130   -7.2600 C   0  0  0  0  0  0  0  0  0  0  0  0
    2.4820    3.4620   -7.7950 C   0  0  0  0  0  3  0  0  0  0  0  0
    3.0730    2.4050   -7.1020 C   0  0  0  0  0  0  0  0  0  0  0  0
    4.4490    1.6170   -7.7700 Cl  0  0  0  0  0  0  0  0  0  0  0  0
    2.5590    1.9790   -5.8800 C   0  0  0  0  0  3  0  0  0  0  0  0
    1.4390    2.6170   -5.3550 C   0  0  0  0  0  0  0  0  0  0  0  0
    0.7830    2.0890   -3.8550 Cl  0  0  0  0  0  0  0  0  0  0  0  0
    0.8350    3.6740   -6.0360 C   0  0  0  0  0  3  0  0  0  0  0  0
    2.8890    5.6870   -9.2430 C   0  0  0  0  0  2  0  0  0  0  0  0
    4.1040    5.4860   -9.5160 N   0  0  0  0  0  1  0  0  0  0  0  0
   -2.7980    6.9020   -7.9320 S   0  0  0  0  0  0  0  0  0  0  0  0
   -3.4120    7.0390   -9.6360 C   0  0  0  0  0  2  0  0  0  0  0  0
   -1.8890   11.8150   -9.0450 C   0  0  0  0  0  1  0  0  0  0  0  0
   -2.4580   10.7300   -9.9110 C   0  0  0  0  0  0  0  0  0  0  0  0
   -2.8790   11.0150  -11.2150 C   0  0  0  0  0  3  0  0  0  0  0  0
   -3.4340   10.0160  -12.0130 C   0  0  0  0  0  3  0  0  0  0  0  0
   -3.5880    8.7260  -11.5110 C   0  0  0  0  0  3  0  0  0  0  0  0
   -3.1920    8.4220  -10.2000 C   0  0  0  0  0  0  0  0  0  0  0  0
   -2.6290    9.4330   -9.4070 C   0  0  0  0  0  3  0  0  0  0  0  0
  1 19  1  0  0  0  0
  1  2  2  0  0  0  0
  3  2  1  0  0  0  0
  3  9  1  0  0  0  0
  4  3  2  0  0  0  0
  5  7  1  0  0  0  0
  5  4  1  0  0  0  0
  6  5  2  0  0  0  0
  7  1  1  0  0  0  0
  8  7  1  0  0  0  0
  9 16  1  0  0  0  0
 10  9  2  0  0  0  0
 10 11  1  0  0  0  0
 11 13  2  0  0  0  0
 12 11  1  0  0  0  0
 13 14  1  0  0  0  0
 14 15  1  0  0  0  0
 16 14  2  0  0  0  0
 17  4  1  0  0  0  0
 18 17  1  0  0  0  0
 20 19  1  0  0  0  0
 22 27  1  0  0  0  0
 22 21  1  0  0  0  0
 23 22  2  0  0  0  0
 24 25  2  0  0  0  0
 24 23  1  0  0  0  0
 25 26  1  0  0  0  0
 26 20  1  0  0  0  0
 26 27  2  0  0  0  0
M  END
>  <minimizedAffinity>
56.2840881

$$$$

 OpenBabel09122223123D

 27 29  0  0  0  0  0  0  0  0999 V2000
    1.0090    6.6120   -8.9830 C   0  0  0  0  0  0  0  0  0  0  0  0
    0.0760    7.3770   -9.4350 N   0  0  0  0  0  0  0  0  0  0  0  0
   -1.2080    7.1180   -9.0010 C   0  0  0  0  0  0  0  0  0  0  0  0
   -1.5380    6.0920   -8.1940 C   0  0  0  0  0  0  0  0  0  0  0  0
   -0.4450    5.2110   -7.7300 C   0  0  0  0  0  0  0  0  0  0  0  0
   -0.6390    4.2390   -7.0110 O   0  0  0  0  0  0  0  0  0  0  0  0
    0.8040    5.5600   -8.1520 N   0  0  0  0  0  0  0  0  0  0  0  0
    1.5850    4.9890   -7.8640 H   0  0  0  0  0  0  0  0  0  0  0  0
   -2.2330    8.0680   -9.4800 C   0  0  0  0  0  0  0  0  0  0  0  0
   -3.5730    7.6630   -9.5610 C   0  0  0  0  0  3  0  0  0  0  0  0
   -4.5430    8.5490  -10.0310 C   0  0  0  0  0  0  0  0  0  0  0  0
   -6.1840    8.0400  -10.1210 Cl  0  0  0  0  0  0  0  0  0  0  0  0
   -4.1970    9.8370  -10.4310 C   0  0  0  0  0  3  0  0  0  0  0  0
   -2.8640   10.2340  -10.3630 C   0  0  0  0  0  0  0  0  0  0  0  0
   -2.4200   11.8170  -10.8720 Cl  0  0  0  0  0  0  0  0  0  0  0  0
   -1.8820    9.3600   -9.8970 C   0  0  0  0  0  3  0  0  0  0  0  0
   -2.9490    5.8190   -7.6970 C   0  0  0  0  0  2  0  0  0  0  0  0
   -4.1190    5.5940   -7.2850 N   0  0  0  0  0  1  0  0  0  0  0  0
    2.6730    6.8610   -9.3880 S   0  0  0  0  0  0  0  0  0  0  0  0
    3.0130    5.2490  -10.1550 C   0  0  0  0  0  2  0  0  0  0  0  0
    2.1970    3.6250   -5.4460 C   0  0  0  0  0  1  0  0  0  0  0  0
    2.6130    3.3510   -6.8610 C   0  0  0  0  0  0  0  0  0  0  0  0
    3.0900    2.0870   -7.2250 C   0  0  0  0  0  3  0  0  0  0  0  0
    3.5040    1.8370   -8.5330 C   0  0  0  0  0  3  0  0  0  0  0  0
    3.4610    2.8530   -9.4850 C   0  0  0  0  0  3  0  0  0  0  0  0
    3.0060    4.1340   -9.1380 C   0  0  0  0  0  0  0  0  0  0  0  0
    2.5850    4.3730   -7.8210 C   0  0  0  0  0  3  0  0  0  0  0  0
  1  7  1  0  0  0  0
  2  3  1  0  0  0  0
  2  1  2  0  0  0  0
  3  4  2  0  0  0  0
  4  5  1  0  0  0  0
  4 17  1  0  0  0  0
  5  6  2  0  0  0  0
  7  8  1  0  0  0  0
  7  5  1  0  0  0  0
  9  3  1  0  0  0  0
 10  9  1  0  0  0  0
 11 10  2  0  0  0  0
 12 11  1  0  0  0  0
 13 14  2  0  0  0  0
 13 11  1  0  0  0  0
 14 16  1  0  0  0  0
 15 14  1  0  0  0  0
 16  9  2  0  0  0  0
 17 18  1  0  0  0  0
 19  1  1  0  0  0  0
 20 19  1  0  0  0  0
 20 26  1  0  0  0  0
 22 21  1  0  0  0  0
 23 22  1  0  0  0  0
 24 23  2  0  0  0  0
 25 26  2  0  0  0  0
 25 24  1  0  0  0  0
 26 27  1  0  0  0  0
 27 22  2  0  0  0  0
M  END
>  <minimizedAffinity>
57.9365807

$$$$

 OpenBabel09122223123D

 27 29  0  0  0  0  0  0  0  0999 V2000
    0.3970    7.2450   -9.1090 C   0  0  0  0  0  0  0  0  0  0  0  0
   -0.2430    6.2920   -8.5230 N   0  0  0  0  0  0  0  0  0  0  0  0
   -1.6070    6.2430   -8.7200 C   0  0  0  0  0  0  0  0  0  0  0  0
   -2.2990    7.1540   -9.4310 C   0  0  0  0  0  0  0  0  0  0  0  0
   -1.5350    8.2560  -10.0530 C   0  0  0  0  0  0  0  0  0  0  0  0
   -2.0680    9.1470  -10.7020 O   0  0  0  0  0  0  0  0  0  0  0  0
   -0.1850    8.2090   -9.8630 N   0  0  0  0  0  0  0  0  0  0  0  0
    0.3820    8.9400  -10.2670 H   0  0  0  0  0  0  0  0  0  0  0  0
   -2.2880    5.0900   -8.0970 C   0  0  0  0  0  0  0  0  0  0  0  0
   -1.6700    3.8320   -8.1010 C   0  0  0  0  0  3  0  0  0  0  0  0
   -2.3160    2.7340   -7.5310 C   0  0  0  0  0  0  0  0  0  0  0  0
   -1.5440    1.1970   -7.5400 Cl  0  0  0  0  0  0  0  0  0  0  0  0
   -3.5780    2.8690   -6.9590 C   0  0  0  0  0  3  0  0  0  0  0  0
   -4.1980    4.1160   -6.9680 C   0  0  0  0  0  0  0  0  0  0  0  0
   -5.7660    4.2920   -6.2810 Cl  0  0  0  0  0  0  0  0  0  0  0  0
   -3.5660    5.2230   -7.5350 C   0  0  0  0  0  3  0  0  0  0  0  0
   -3.7990    7.0880   -9.6680 C   0  0  0  0  0  2  0  0  0  0  0  0
   -5.0430    7.0330   -9.8650 N   0  0  0  0  0  1  0  0  0  0  0  0
    2.1180    7.3910   -9.0050 S   0  0  0  0  0  0  0  0  0  0  0  0
    2.5760    5.8670   -9.8820 C   0  0  0  0  0  2  0  0  0  0  0  0
    3.7510    1.0290   -9.0510 C   0  0  0  0  0  1  0  0  0  0  0  0
    3.3010    2.3640   -8.5350 C   0  0  0  0  0  0  0  0  0  0  0  0
    2.9340    2.5160   -7.1930 C   0  0  0  0  0  3  0  0  0  0  0  0
    2.4900    3.7470   -6.7170 C   0  0  0  0  0  3  0  0  0  0  0  0
    2.3920    4.8370   -7.5800 C   0  0  0  0  0  3  0  0  0  0  0  0
    2.7350    4.7030   -8.9340 C   0  0  0  0  0  0  0  0  0  0  0  0
    3.1880    3.4600   -9.4020 C   0  0  0  0  0  3  0  0  0  0  0  0
  1 19  1  0  0  0  0
  1  2  2  0  0  0  0
  3  2  1  0  0  0  0
  3  9  1  0  0  0  0
  4  3  2  0  0  0  0
  5  7  1  0  0  0  0
  5  4  1  0  0  0  0
  6  5  2  0  0  0  0
  7  1  1  0  0  0  0
  8  7  1  0  0  0  0
  9 16  1  0  0  0  0
 10  9  2  0  0  0  0
 10 11  1  0  0  0  0
 11 13  2  0  0  0  0
 12 11  1  0  0  0  0
 14 13  1  0  0  0  0
 14 15  1  0  0  0  0
 16 14  2  0  0  0  0
 17  4  1  0  0  0  0
 18 17  1  0  0  0  0
 20 19  1  0  0  0  0
 20 26  1  0  0  0  0
 21 22  1  0  0  0  0
 22 23  1  0  0  0  0
 23 24  2  0  0  0  0
 25 24  1  0  0  0  0
 26 25  2  0  0  0  0
 27 26  1  0  0  0  0
 27 22  2  0  0  0  0
M  END
>  <minimizedAffinity>
58.2503548

$$$$

 OpenBabel09122223123D

 27 29  0  0  0  0  0  0  0  0999 V2000
    0.4060    7.2440   -9.1040 C   0  0  0  0  0  0  0  0  0  0  0  0
   -0.2360    6.2790   -8.5400 N   0  0  0  0  0  0  0  0  0  0  0  0
   -1.6000    6.2360   -8.7410 C   0  0  0  0  0  0  0  0  0  0  0  0
   -2.2900    7.1630   -9.4330 C   0  0  0  0  0  0  0  0  0  0  0  0
   -1.5230    8.2780  -10.0290 C   0  0  0  0  0  0  0  0  0  0  0  0
   -2.0540    9.1830  -10.6590 O   0  0  0  0  0  0  0  0  0  0  0  0
   -0.1740    8.2260   -9.8380 N   0  0  0  0  0  0  0  0  0  0  0  0
    0.3950    8.9650  -10.2240 H   0  0  0  0  0  0  0  0  0  0  0  0
   -2.2830    5.0700   -8.1440 C   0  0  0  0  0  0  0  0  0  0  0  0
   -3.5410    5.2320   -7.5470 C   0  0  0  0  0  3  0  0  0  0  0  0
   -4.1820    4.1390   -6.9640 C   0  0  0  0  0  0  0  0  0  0  0  0
   -5.7280    4.3500   -6.2380 Cl  0  0  0  0  0  0  0  0  0  0  0  0
   -3.5850    2.8810   -6.9610 C   0  0  0  0  0  3  0  0  0  0  0  0
   -2.3300    2.7240   -7.5420 C   0  0  0  0  0  0  0  0  0  0  0  0
   -1.5720    1.1790   -7.5280 Cl  0  0  0  0  0  0  0  0  0  0  0  0
   -1.6740    3.8070   -8.1280 C   0  0  0  0  0  3  0  0  0  0  0  0
   -3.7890    7.1040   -9.6750 C   0  0  0  0  0  2  0  0  0  0  0  0
   -5.0330    7.0550   -9.8750 N   0  0  0  0  0  1  0  0  0  0  0  0
    2.1270    7.3860   -8.9930 S   0  0  0  0  0  0  0  0  0  0  0  0
    2.5850    5.8690   -9.8810 C   0  0  0  0  0  2  0  0  0  0  0  0
    3.7550    1.0240   -9.0880 C   0  0  0  0  0  1  0  0  0  0  0  0
    3.3090    2.3560   -8.5610 C   0  0  0  0  0  0  0  0  0  0  0  0
    2.9460    2.4990   -7.2170 C   0  0  0  0  0  3  0  0  0  0  0  0
    2.5050    3.7280   -6.7300 C   0  0  0  0  0  3  0  0  0  0  0  0
    2.4070    4.8230   -7.5860 C   0  0  0  0  0  3  0  0  0  0  0  0
    2.7450    4.6990   -8.9420 C   0  0  0  0  0  0  0  0  0  0  0  0
    3.1950    3.4580   -9.4200 C   0  0  0  0  0  3  0  0  0  0  0  0
  1 19  1  0  0  0  0
  1  2  2  0  0  0  0
  3  2  1  0  0  0  0
  3  9  1  0  0  0  0
  4  3  2  0  0  0  0
  5  7  1  0  0  0  0
  5  4  1  0  0  0  0
  6  5  2  0  0  0  0
  7  1  1  0  0  0  0
  8  7  1  0  0  0  0
  9 16  2  0  0  0  0
  9 10  1  0  0  0  0
 10 11  2  0  0  0  0
 11 13  1  0  0  0  0
 11 12  1  0  0  0  0
 14 15  1  0  0  0  0
 14 13  2  0  0  0  0
 16 14  1  0  0  0  0
 17  4  1  0  0  0  0
 18 17  1  0  0  0  0
 20 19  1  0  0  0  0
 20 26  1  0  0  0  0
 21 22  1  0  0  0  0
 22 23  1  0  0  0  0
 23 24  2  0  0  0  0
 25 24  1  0  0  0  0
 26 25  2  0  0  0  0
 27 26  1  0  0  0  0
 27 22  2  0  0  0  0
M  END
>  <minimizedAffinity>
58.3475609

$$$$
