
 OpenBabel09122222393D

 39 44  0  0  0  0  0  0  0  0999 V2000
    7.7730   -4.2090    1.7950 C   0  0  0  0  0  0  0  0  0  0  0  0
    7.8780   -3.1920    2.7560 C   0  0  0  0  0  3  0  0  0  0  0  0
    8.6670   -2.0640    2.5180 C   0  0  0  0  0  3  0  0  0  0  0  0
    9.3500   -1.9430    1.3090 C   0  0  0  0  0  0  0  0  0  0  0  0
    9.3150   -2.9940    0.3910 C   0  0  0  0  0  0  0  0  0  0  0  0
   10.0080   -2.9130   -0.7540 F   0  0  0  0  0  0  0  0  0  0  0  0
    8.5360   -4.1230    0.6270 C   0  0  0  0  0  3  0  0  0  0  0  0
    4.7150   -9.3160    2.4640 C   0  0  0  0  0  0  0  0  0  0  0  0
    3.7970   -8.5070    3.1530 C   0  0  0  0  0  3  0  0  0  0  0  0
    4.0000   -7.1330    3.3300 C   0  0  0  0  0  3  0  0  0  0  0  0
    5.1670   -6.5750    2.7920 C   0  0  0  0  0  0  0  0  0  0  0  0
    6.0930   -7.3440    2.0930 C   0  0  0  0  0  0  0  0  0  0  0  0
    5.8740   -8.7210    1.9270 C   0  0  0  0  0  3  0  0  0  0  0  0
    7.1420   -6.5730    1.6620 N   0  0  0  0  0  0  0  0  0  0  0  0
    6.8820   -5.3410    2.0520 C   0  0  0  0  0  0  0  0  0  0  0  0
    5.7080   -5.3040    2.7930 N   0  0  0  0  0  0  0  0  0  0  0  0
    5.1850   -4.1440    3.5100 C   0  0  0  0  0  3  0  0  0  0  0  0
    3.7010   -3.8810    3.2110 C   0  0  0  0  0  2  0  0  0  0  0  0
    3.2080   -2.6210    3.9180 C   0  0  0  0  0  2  0  0  0  0  0  0
    3.4880   -2.6670    5.4180 C   0  0  0  0  0  2  0  0  0  0  0  0
    4.9680   -2.9130    5.7090 C   0  0  0  0  0  2  0  0  0  0  0  0
    5.4740   -4.1800    5.0200 C   0  0  0  0  0  2  0  0  0  0  0  0
    5.3210  -11.5900    2.8220 O   0  0  0  0  0  1  0  0  0  0  0  0
    4.4650  -10.8040    2.3060 C   0  0  0  0  0  0  0  0  0  0  0  0
    3.4250  -11.1550    1.6660 O   0  0  0  0  0  0  0  0  0  0  0  0
   10.1020   -0.8410    1.0000 O   0  0  0  0  0  0  0  0  0  0  0  0
    9.3280    0.3700    0.9420 C   0  0  0  0  0  2  0  0  0  0  0  0
   10.1900    1.6140    0.8330 C   0  0  0  0  0  0  0  0  0  0  0  0
   10.0600    2.5990    1.8330 C   0  0  0  0  0  3  0  0  0  0  0  0
   10.8280    3.7600    1.8050 C   0  0  0  0  0  3  0  0  0  0  0  0
   11.7410    3.9610    0.7770 C   0  0  0  0  0  3  0  0  0  0  0  0
   11.8850    2.9970   -0.2220 C   0  0  0  0  0  3  0  0  0  0  0  0
   11.1190    1.8140   -0.2140 C   0  0  0  0  0  0  0  0  0  0  0  0
   11.3320    0.8370   -1.2890 C   0  0  0  0  0  0  0  0  0  0  0  0
   10.2910    0.4860   -2.1630 C   0  0  0  0  0  3  0  0  0  0  0  0
   10.4970   -0.4540   -3.1760 C   0  0  0  0  0  3  0  0  0  0  0  0
   11.7480   -1.0480   -3.3320 C   0  0  0  0  0  3  0  0  0  0  0  0
   12.7950   -0.7010   -2.4820 C   0  0  0  0  0  3  0  0  0  0  0  0
   12.5890    0.2390   -1.4710 C   0  0  0  0  0  3  0  0  0  0  0  0
  1 15  1  0  0  0  0
  1  2  1  0  0  0  0
  3  2  2  0  0  0  0
  4  3  1  0  0  0  0
  5  7  1  0  0  0  0
  5  4  2  0  0  0  0
  6  5  1  0  0  0  0
  7  1  2  0  0  0  0
  8  9  1  0  0  0  0
  9 10  2  0  0  0  0
 11 16  1  0  0  0  0
 11 10  1  0  0  0  0
 12 11  2  0  0  0  0
 13 12  1  0  0  0  0
 13  8  2  0  0  0  0
 14 15  2  0  0  0  0
 14 12  1  0  0  0  0
 15 16  1  0  0  0  0
 16 17  1  0  0  0  0
 17 22  1  0  0  0  0
 18 17  1  0  0  0  0
 18 19  1  0  0  0  0
 19 20  1  0  0  0  0
 20 21  1  0  0  0  0
 22 21  1  0  0  0  0
 24  8  1  0  0  0  0
 24 23  1  0  0  0  0
 25 24  2  0  0  0  0
 26  4  1  0  0  0  0
 27 26  1  0  0  0  0
 28 27  1  0  0  0  0
 28 29  1  0  0  0  0
 30 29  2  0  0  0  0
 31 30  1  0  0  0  0
 32 33  1  0  0  0  0
 32 31  2  0  0  0  0
 33 28  2  0  0  0  0
 34 33  1  0  0  0  0
 35 34  2  0  0  0  0
 36 35  1  0  0  0  0
 37 36  2  0  0  0  0
 37 38  1  0  0  0  0
 38 39  2  0  0  0  0
 39 34  1  0  0  0  0
M  END
>  <minimizedAffinity>
-8.11670971

$$$$
