
 OpenBabel09122222393D

 39 44  0  0  0  0  0  0  0  0999 V2000
    7.5020   -4.9140    1.6490 C   0  0  0  0  0  0  0  0  0  0  0  0
    8.0970   -5.0220    0.3830 C   0  0  0  0  0  3  0  0  0  0  0  0
    9.0690   -4.1070   -0.0290 C   0  0  0  0  0  3  0  0  0  0  0  0
    9.4600   -3.0820    0.8310 C   0  0  0  0  0  0  0  0  0  0  0  0
    8.8070   -2.9250    2.0550 C   0  0  0  0  0  0  0  0  0  0  0  0
    9.1390   -1.9140    2.8720 F   0  0  0  0  0  0  0  0  0  0  0  0
    7.8330   -3.8290    2.4660 C   0  0  0  0  0  3  0  0  0  0  0  0
    4.0700   -9.6350    2.9970 C   0  0  0  0  0  0  0  0  0  0  0  0
    3.2910   -8.6890    3.6840 C   0  0  0  0  0  3  0  0  0  0  0  0
    3.6310   -7.3310    3.7250 C   0  0  0  0  0  3  0  0  0  0  0  0
    4.7910   -6.9320    3.0500 C   0  0  0  0  0  0  0  0  0  0  0  0
    5.5810   -7.8400    2.3490 C   0  0  0  0  0  0  0  0  0  0  0  0
    5.2260   -9.1980    2.3210 C   0  0  0  0  0  3  0  0  0  0  0  0
    6.6530   -7.2100    1.7710 N   0  0  0  0  0  0  0  0  0  0  0  0
    6.5390   -5.9320    2.0720 C   0  0  0  0  0  0  0  0  0  0  0  0
    5.4420   -5.7230    2.8980 N   0  0  0  0  0  0  0  0  0  0  0  0
    5.0890   -4.4650    3.5510 C   0  0  0  0  0  3  0  0  0  0  0  0
    3.6550   -4.0150    3.2330 C   0  0  0  0  0  2  0  0  0  0  0  0
    3.3450   -2.6620    3.8720 C   0  0  0  0  0  2  0  0  0  0  0  0
    3.6230   -2.6670    5.3720 C   0  0  0  0  0  2  0  0  0  0  0  0
    5.0550   -3.1020    5.6810 C   0  0  0  0  0  2  0  0  0  0  0  0
    5.3770   -4.4610    5.0620 C   0  0  0  0  0  2  0  0  0  0  0  0
    4.5920  -11.9420    2.7290 O   0  0  0  0  0  0  0  0  0  0  0  0
    3.6750  -11.0990    2.9890 C   0  0  0  0  0  0  0  0  0  0  0  0
    2.4590  -11.3770    3.2340 O   0  0  0  0  0  1  0  0  0  0  0  0
   10.4400   -2.1840    0.5020 O   0  0  0  0  0  0  0  0  0  0  0  0
   11.0490   -2.4570   -0.7720 C   0  0  0  0  0  2  0  0  0  0  0  0
   11.5390   -1.2020   -1.4700 C   0  0  0  0  0  0  0  0  0  0  0  0
   10.6120   -0.1660   -1.6980 C   0  0  0  0  0  3  0  0  0  0  0  0
   10.9950    1.0190   -2.3220 C   0  0  0  0  0  3  0  0  0  0  0  0
   12.3110    1.1920   -2.7310 C   0  0  0  0  0  3  0  0  0  0  0  0
   13.2440    0.1770   -2.5130 C   0  0  0  0  0  3  0  0  0  0  0  0
   12.8800   -1.0300   -1.8840 C   0  0  0  0  0  0  0  0  0  0  0  0
   13.9170   -2.0490   -1.6760 C   0  0  0  0  0  0  0  0  0  0  0  0
   13.7510   -3.3580   -2.1560 C   0  0  0  0  0  3  0  0  0  0  0  0
   14.7360   -4.3250   -1.9430 C   0  0  0  0  0  3  0  0  0  0  0  0
   15.9010   -3.9950   -1.2540 C   0  0  0  0  0  3  0  0  0  0  0  0
   16.0870   -2.6970   -0.7820 C   0  0  0  0  0  3  0  0  0  0  0  0
   15.1040   -1.7310   -0.9970 C   0  0  0  0  0  3  0  0  0  0  0  0
  1 15  1  0  0  0  0
  1  7  1  0  0  0  0
  2  1  2  0  0  0  0
  3  2  1  0  0  0  0
  3  4  2  0  0  0  0
  4  5  1  0  0  0  0
  5  7  2  0  0  0  0
  5  6  1  0  0  0  0
  8  9  1  0  0  0  0
  9 10  2  0  0  0  0
 11 10  1  0  0  0  0
 12 11  2  0  0  0  0
 13 12  1  0  0  0  0
 13  8  2  0  0  0  0
 14 15  2  0  0  0  0
 14 12  1  0  0  0  0
 15 16  1  0  0  0  0
 16 11  1  0  0  0  0
 16 17  1  0  0  0  0
 17 22  1  0  0  0  0
 18 17  1  0  0  0  0
 18 19  1  0  0  0  0
 19 20  1  0  0  0  0
 20 21  1  0  0  0  0
 22 21  1  0  0  0  0
 23 24  2  0  0  0  0
 24  8  1  0  0  0  0
 24 25  1  0  0  0  0
 26  4  1  0  0  0  0
 27 26  1  0  0  0  0
 28 27  1  0  0  0  0
 29 28  1  0  0  0  0
 30 29  2  0  0  0  0
 31 32  2  0  0  0  0
 31 30  1  0  0  0  0
 32 33  1  0  0  0  0
 33 34  1  0  0  0  0
 33 28  2  0  0  0  0
 34 39  1  0  0  0  0
 35 36  1  0  0  0  0
 35 34  2  0  0  0  0
 36 37  2  0  0  0  0
 37 38  1  0  0  0  0
 39 38  2  0  0  0  0
M  END
>  <minimizedAffinity>
-9.08922291

$$$$
