
 OpenBabel09122222073D

 39 44  0  0  0  0  0  0  0  0999 V2000
    4.7920   -7.4900    1.8370 C   0  0  0  0  0  0  0  0  0  0  0  0
    4.0340   -7.8870    0.7250 C   0  0  0  0  0  3  0  0  0  0  0  0
    2.9770   -8.7890    0.8670 C   0  0  0  0  0  3  0  0  0  0  0  0
    2.6660   -9.2930    2.1300 C   0  0  0  0  0  0  0  0  0  0  0  0
    3.4740   -8.9650    3.2190 C   0  0  0  0  0  0  0  0  0  0  0  0
    3.2160   -9.4810    4.4300 F   0  0  0  0  0  0  0  0  0  0  0  0
    4.5320   -8.0730    3.0810 C   0  0  0  0  0  3  0  0  0  0  0  0
    9.3200   -3.8340    0.4170 C   0  0  0  0  0  0  0  0  0  0  0  0
    8.8860   -3.1000    1.5330 C   0  0  0  0  0  3  0  0  0  0  0  0
    7.7890   -3.4970    2.3070 C   0  0  0  0  0  3  0  0  0  0  0  0
    7.1230   -4.6720    1.9330 C   0  0  0  0  0  0  0  0  0  0  0  0
    7.5330   -5.4310    0.8400 C   0  0  0  0  0  0  0  0  0  0  0  0
    8.6330   -5.0150    0.0740 C   0  0  0  0  0  3  0  0  0  0  0  0
    6.7290   -6.5320    0.6810 N   0  0  0  0  0  0  0  0  0  0  0  0
    5.8460   -6.4900    1.6590 C   0  0  0  0  0  0  0  0  0  0  0  0
    6.0170   -5.3400    2.4200 N   0  0  0  0  0  0  0  0  0  0  0  0
    5.1330   -4.8840    3.4900 C   0  0  0  0  0  3  0  0  0  0  0  0
    5.8760   -4.0790    4.5670 C   0  0  0  0  0  2  0  0  0  0  0  0
    4.9380   -3.6800    5.7060 C   0  0  0  0  0  2  0  0  0  0  0  0
    3.7040   -2.9440    5.1910 C   0  0  0  0  0  2  0  0  0  0  0  0
    2.9620   -3.7560    4.1310 C   0  0  0  0  0  2  0  0  0  0  0  0
    3.8830   -4.1500    2.9770 C   0  0  0  0  0  2  0  0  0  0  0  0
   10.3270   -2.3310   -1.1300 O   0  0  0  0  0  0  0  0  0  0  0  0
   10.5040   -3.3610   -0.4040 C   0  0  0  0  0  0  0  0  0  0  0  0
   11.5820   -4.0280   -0.3110 O   0  0  0  0  0  1  0  0  0  0  0  0
    1.6130  -10.1440    2.3390 O   0  0  0  0  0  0  0  0  0  0  0  0
    2.0270  -11.4960    2.6040 C   0  0  0  0  0  2  0  0  0  0  0  0
    2.6410  -12.1700    1.3910 C   0  0  0  0  0  0  0  0  0  0  0  0
    2.0150  -11.9850    0.1420 C   0  0  0  0  0  3  0  0  0  0  0  0
    2.5300  -12.5640   -1.0150 C   0  0  0  0  0  3  0  0  0  0  0  0
    3.6810  -13.3390   -0.9480 C   0  0  0  0  0  3  0  0  0  0  0  0
    4.3160  -13.5330    0.2800 C   0  0  0  0  0  3  0  0  0  0  0  0
    3.8130  -12.9580    1.4640 C   0  0  0  0  0  0  0  0  0  0  0  0
    4.5400  -13.1940    2.7180 C   0  0  0  0  0  0  0  0  0  0  0  0
    4.7150  -14.4940    3.2180 C   0  0  0  0  0  3  0  0  0  0  0  0
    5.3960  -14.7100    4.4180 C   0  0  0  0  0  3  0  0  0  0  0  0
    5.9170  -13.6300    5.1290 C   0  0  0  0  0  3  0  0  0  0  0  0
    5.7630  -12.3350    4.6400 C   0  0  0  0  0  3  0  0  0  0  0  0
    5.0840  -12.1200    3.4400 C   0  0  0  0  0  3  0  0  0  0  0  0
  1  7  1  0  0  0  0
  2  3  1  0  0  0  0
  2  1  2  0  0  0  0
  3  4  2  0  0  0  0
  4 26  1  0  0  0  0
  4  5  1  0  0  0  0
  5  6  1  0  0  0  0
  7  5  2  0  0  0  0
  8  9  1  0  0  0  0
  9 10  2  0  0  0  0
 11 10  1  0  0  0  0
 11 16  1  0  0  0  0
 12 11  2  0  0  0  0
 13  8  2  0  0  0  0
 13 12  1  0  0  0  0
 14 12  1  0  0  0  0
 14 15  2  0  0  0  0
 15  1  1  0  0  0  0
 15 16  1  0  0  0  0
 16 17  1  0  0  0  0
 17 18  1  0  0  0  0
 18 19  1  0  0  0  0
 20 19  1  0  0  0  0
 21 20  1  0  0  0  0
 22 17  1  0  0  0  0
 22 21  1  0  0  0  0
 23 24  2  0  0  0  0
 24 25  1  0  0  0  0
 24  8  1  0  0  0  0
 26 27  1  0  0  0  0
 28 33  1  0  0  0  0
 28 27  1  0  0  0  0
 29 28  2  0  0  0  0
 30 31  2  0  0  0  0
 30 29  1  0  0  0  0
 31 32  1  0  0  0  0
 32 33  2  0  0  0  0
 33 34  1  0  0  0  0
 34 35  2  0  0  0  0
 34 39  1  0  0  0  0
 35 36  1  0  0  0  0
 36 37  2  0  0  0  0
 38 37  1  0  0  0  0
 39 38  2  0  0  0  0
M  END
>  <minimizedAffinity>
-9.64756775

$$$$

 OpenBabel09122222073D

 39 44  0  0  0  0  0  0  0  0999 V2000
    6.2200   -6.7240    0.6880 C   0  0  0  0  0  0  0  0  0  0  0  0
    7.4620   -6.7120    1.3410 C   0  0  0  0  0  3  0  0  0  0  0  0
    8.5100   -5.9190    0.8680 C   0  0  0  0  0  3  0  0  0  0  0  0
    8.3170   -5.1230   -0.2600 C   0  0  0  0  0  0  0  0  0  0  0  0
    7.1120   -5.2010   -0.9590 C   0  0  0  0  0  0  0  0  0  0  0  0
    6.9300   -4.4780   -2.0740 F   0  0  0  0  0  0  0  0  0  0  0  0
    6.0670   -5.9940   -0.4950 C   0  0  0  0  0  3  0  0  0  0  0  0
    1.9480  -10.5420    2.4350 C   0  0  0  0  0  0  0  0  0  0  0  0
    1.6820   -9.5700    3.4130 C   0  0  0  0  0  3  0  0  0  0  0  0
    2.4180   -8.3820    3.5040 C   0  0  0  0  0  3  0  0  0  0  0  0
    3.4460   -8.1830    2.5740 C   0  0  0  0  0  0  0  0  0  0  0  0
    3.7300   -9.1190    1.5830 C   0  0  0  0  0  0  0  0  0  0  0  0
    2.9840  -10.3060    1.5090 C   0  0  0  0  0  3  0  0  0  0  0  0
    4.7700   -8.6960    0.7960 N   0  0  0  0  0  0  0  0  0  0  0  0
    5.1250   -7.5130    1.2540 C   0  0  0  0  0  0  0  0  0  0  0  0
    4.3760   -7.1810    2.3760 N   0  0  0  0  0  0  0  0  0  0  0  0
    4.5900   -6.0200    3.2350 C   0  0  0  0  0  3  0  0  0  0  0  0
    4.0940   -4.7130    2.5980 C   0  0  0  0  0  2  0  0  0  0  0  0
    4.3990   -3.5100    3.4910 C   0  0  0  0  0  2  0  0  0  0  0  0
    3.8520   -3.7010    4.9030 C   0  0  0  0  0  2  0  0  0  0  0  0
    4.3610   -4.9950    5.5360 C   0  0  0  0  0  2  0  0  0  0  0  0
    4.0510   -6.2100    4.6630 C   0  0  0  0  0  2  0  0  0  0  0  0
    1.6610  -12.8100    1.7710 O   0  0  0  0  0  0  0  0  0  0  0  0
    1.1380  -11.8230    2.3790 C   0  0  0  0  0  0  0  0  0  0  0  0
   -0.0040  -11.8150    2.9370 O   0  0  0  0  0  1  0  0  0  0  0  0
    9.2920   -4.2910   -0.7450 O   0  0  0  0  0  0  0  0  0  0  0  0
   10.0490   -3.6480    0.2950 C   0  0  0  0  0  2  0  0  0  0  0  0
   10.0220   -2.1340    0.1910 C   0  0  0  0  0  0  0  0  0  0  0  0
   10.4320   -1.5460   -1.0230 C   0  0  0  0  0  3  0  0  0  0  0  0
   10.4200   -0.1640   -1.1940 C   0  0  0  0  0  3  0  0  0  0  0  0
   10.0000    0.6580   -0.1560 C   0  0  0  0  0  3  0  0  0  0  0  0
    9.5890    0.0940    1.0530 C   0  0  0  0  0  3  0  0  0  0  0  0
    9.5920   -1.3010    1.2490 C   0  0  0  0  0  0  0  0  0  0  0  0
    9.1340   -1.8250    2.5420 C   0  0  0  0  0  0  0  0  0  0  0  0
    8.2140   -2.8830    2.6080 C   0  0  0  0  0  3  0  0  0  0  0  0
    7.7730   -3.3680    3.8420 C   0  0  0  0  0  3  0  0  0  0  0  0
    8.2520   -2.8070    5.0240 C   0  0  0  0  0  3  0  0  0  0  0  0
    9.1750   -1.7650    4.9760 C   0  0  0  0  0  3  0  0  0  0  0  0
    9.6170   -1.2820    3.7430 C   0  0  0  0  0  3  0  0  0  0  0  0
  1 15  1  0  0  0  0
  1  2  1  0  0  0  0
  3  2  2  0  0  0  0
  4  3  1  0  0  0  0
  5  7  1  0  0  0  0
  5  4  2  0  0  0  0
  6  5  1  0  0  0  0
  7  1  2  0  0  0  0
  8  9  1  0  0  0  0
  9 10  2  0  0  0  0
 11 10  1  0  0  0  0
 12 11  2  0  0  0  0
 13 12  1  0  0  0  0
 13  8  2  0  0  0  0
 14 15  2  0  0  0  0
 14 12  1  0  0  0  0
 15 16  1  0  0  0  0
 16 11  1  0  0  0  0
 16 17  1  0  0  0  0
 17 22  1  0  0  0  0
 18 17  1  0  0  0  0
 18 19  1  0  0  0  0
 19 20  1  0  0  0  0
 20 21  1  0  0  0  0
 22 21  1  0  0  0  0
 23 24  2  0  0  0  0
 24  8  1  0  0  0  0
 24 25  1  0  0  0  0
 26  4  1  0  0  0  0
 26 27  1  0  0  0  0
 28 27  1  0  0  0  0
 28 33  1  0  0  0  0
 29 28  2  0  0  0  0
 30 29  1  0  0  0  0
 30 31  2  0  0  0  0
 31 32  1  0  0  0  0
 32 33  2  0  0  0  0
 33 34  1  0  0  0  0
 34 35  2  0  0  0  0
 34 39  1  0  0  0  0
 35 36  1  0  0  0  0
 36 37  2  0  0  0  0
 38 37  1  0  0  0  0
 39 38  2  0  0  0  0
M  END
>  <minimizedAffinity>
-9.48525715

$$$$

 OpenBabel09122222073D

 39 44  0  0  0  0  0  0  0  0999 V2000
    6.0200   -6.8660    0.7690 C   0  0  0  0  0  0  0  0  0  0  0  0
    7.2950   -6.9110    1.3530 C   0  0  0  0  0  3  0  0  0  0  0  0
    8.3410   -6.1380    0.8440 C   0  0  0  0  0  3  0  0  0  0  0  0
    8.1130   -5.3050   -0.2500 C   0  0  0  0  0  0  0  0  0  0  0  0
    6.8700   -5.3260   -0.8830 C   0  0  0  0  0  0  0  0  0  0  0  0
    6.6510   -4.5660   -1.9670 F   0  0  0  0  0  0  0  0  0  0  0  0
    5.8270   -6.1000   -0.3840 C   0  0  0  0  0  3  0  0  0  0  0  0
    1.7460  -10.6120    2.6630 C   0  0  0  0  0  0  0  0  0  0  0  0
    1.5350   -9.6380    3.6530 C   0  0  0  0  0  3  0  0  0  0  0  0
    2.2940   -8.4640    3.7200 C   0  0  0  0  0  3  0  0  0  0  0  0
    3.2910   -8.2810    2.7530 C   0  0  0  0  0  0  0  0  0  0  0  0
    3.5210   -9.2190    1.7490 C   0  0  0  0  0  0  0  0  0  0  0  0
    2.7510  -10.3910    1.7010 C   0  0  0  0  0  3  0  0  0  0  0  0
    4.5390   -8.8130    0.9250 N   0  0  0  0  0  0  0  0  0  0  0  0
    4.9330   -7.6370    1.3740 C   0  0  0  0  0  0  0  0  0  0  0  0
    4.2310   -7.2950    2.5230 N   0  0  0  0  0  0  0  0  0  0  0  0
    4.4980   -6.1410    3.3760 C   0  0  0  0  0  3  0  0  0  0  0  0
    4.1670   -4.8070    2.6890 C   0  0  0  0  0  2  0  0  0  0  0  0
    4.5260   -3.6200    3.5810 C   0  0  0  0  0  2  0  0  0  0  0  0
    3.8760   -3.7290    4.9580 C   0  0  0  0  0  2  0  0  0  0  0  0
    4.2210   -5.0510    5.6420 C   0  0  0  0  0  2  0  0  0  0  0  0
    3.8550   -6.2500    4.7690 C   0  0  0  0  0  2  0  0  0  0  0  0
    1.3350  -12.8310    1.9080 O   0  0  0  0  0  0  0  0  0  0  0  0
    0.9110  -11.8770    2.6350 C   0  0  0  0  0  0  0  0  0  0  0  0
   -0.1520  -11.8900    3.3320 O   0  0  0  0  0  1  0  0  0  0  0  0
    9.0860   -4.4900   -0.7650 O   0  0  0  0  0  0  0  0  0  0  0  0
   10.0240   -4.0380    0.2270 C   0  0  0  0  0  2  0  0  0  0  0  0
    9.6360   -2.7040    0.8390 C   0  0  0  0  0  0  0  0  0  0  0  0
    8.8810   -2.7170    2.0290 C   0  0  0  0  0  3  0  0  0  0  0  0
    8.5000   -1.5310    2.6530 C   0  0  0  0  0  3  0  0  0  0  0  0
    8.8650   -0.3100    2.0990 C   0  0  0  0  0  3  0  0  0  0  0  0
    9.6140   -0.2780    0.9220 C   0  0  0  0  0  3  0  0  0  0  0  0
   10.0100   -1.4640    0.2730 C   0  0  0  0  0  0  0  0  0  0  0  0
   10.8080   -1.3550   -0.9550 C   0  0  0  0  0  0  0  0  0  0  0  0
   11.9520   -2.1460   -1.1470 C   0  0  0  0  0  3  0  0  0  0  0  0
   12.7120   -2.0280   -2.3120 C   0  0  0  0  0  3  0  0  0  0  0  0
   12.3360   -1.1230   -3.3030 C   0  0  0  0  0  3  0  0  0  0  0  0
   11.1960   -0.3400   -3.1340 C   0  0  0  0  0  3  0  0  0  0  0  0
   10.4350   -0.4600   -1.9700 C   0  0  0  0  0  3  0  0  0  0  0  0
  1  2  1  0  0  0  0
  1 15  1  0  0  0  0
  3  2  2  0  0  0  0
  4  3  1  0  0  0  0
  5  7  1  0  0  0  0
  5  4  2  0  0  0  0
  6  5  1  0  0  0  0
  7  1  2  0  0  0  0
  8  9  1  0  0  0  0
  9 10  2  0  0  0  0
 11 10  1  0  0  0  0
 12 11  2  0  0  0  0
 13 12  1  0  0  0  0
 13  8  2  0  0  0  0
 14 15  2  0  0  0  0
 14 12  1  0  0  0  0
 15 16  1  0  0  0  0
 16 11  1  0  0  0  0
 16 17  1  0  0  0  0
 17 22  1  0  0  0  0
 18 17  1  0  0  0  0
 18 19  1  0  0  0  0
 19 20  1  0  0  0  0
 20 21  1  0  0  0  0
 22 21  1  0  0  0  0
 23 24  2  0  0  0  0
 24  8  1  0  0  0  0
 24 25  1  0  0  0  0
 26  4  1  0  0  0  0
 26 27  1  0  0  0  0
 27 28  1  0  0  0  0
 28 29  1  0  0  0  0
 29 30  2  0  0  0  0
 31 30  1  0  0  0  0
 32 31  2  0  0  0  0
 33 28  2  0  0  0  0
 33 32  1  0  0  0  0
 34 33  1  0  0  0  0
 35 34  1  0  0  0  0
 36 35  2  0  0  0  0
 37 38  2  0  0  0  0
 37 36  1  0  0  0  0
 38 39  1  0  0  0  0
 39 34  2  0  0  0  0
M  END
>  <minimizedAffinity>
-9.477705

$$$$

 OpenBabel09122222073D

 39 44  0  0  0  0  0  0  0  0999 V2000
    7.5020   -4.9140    1.6490 C   0  0  0  0  0  0  0  0  0  0  0  0
    8.0970   -5.0220    0.3830 C   0  0  0  0  0  3  0  0  0  0  0  0
    9.0690   -4.1070   -0.0290 C   0  0  0  0  0  3  0  0  0  0  0  0
    9.4600   -3.0820    0.8310 C   0  0  0  0  0  0  0  0  0  0  0  0
    8.8070   -2.9250    2.0550 C   0  0  0  0  0  0  0  0  0  0  0  0
    9.1390   -1.9140    2.8720 F   0  0  0  0  0  0  0  0  0  0  0  0
    7.8330   -3.8290    2.4660 C   0  0  0  0  0  3  0  0  0  0  0  0
    4.0700   -9.6350    2.9970 C   0  0  0  0  0  0  0  0  0  0  0  0
    3.2910   -8.6890    3.6840 C   0  0  0  0  0  3  0  0  0  0  0  0
    3.6310   -7.3310    3.7250 C   0  0  0  0  0  3  0  0  0  0  0  0
    4.7910   -6.9320    3.0500 C   0  0  0  0  0  0  0  0  0  0  0  0
    5.5810   -7.8400    2.3490 C   0  0  0  0  0  0  0  0  0  0  0  0
    5.2260   -9.1980    2.3210 C   0  0  0  0  0  3  0  0  0  0  0  0
    6.6530   -7.2100    1.7710 N   0  0  0  0  0  0  0  0  0  0  0  0
    6.5390   -5.9320    2.0720 C   0  0  0  0  0  0  0  0  0  0  0  0
    5.4420   -5.7230    2.8980 N   0  0  0  0  0  0  0  0  0  0  0  0
    5.0890   -4.4650    3.5510 C   0  0  0  0  0  3  0  0  0  0  0  0
    3.6550   -4.0150    3.2330 C   0  0  0  0  0  2  0  0  0  0  0  0
    3.3450   -2.6620    3.8720 C   0  0  0  0  0  2  0  0  0  0  0  0
    3.6230   -2.6670    5.3720 C   0  0  0  0  0  2  0  0  0  0  0  0
    5.0550   -3.1020    5.6810 C   0  0  0  0  0  2  0  0  0  0  0  0
    5.3770   -4.4610    5.0620 C   0  0  0  0  0  2  0  0  0  0  0  0
    4.5920  -11.9420    2.7290 O   0  0  0  0  0  0  0  0  0  0  0  0
    3.6750  -11.0990    2.9890 C   0  0  0  0  0  0  0  0  0  0  0  0
    2.4590  -11.3770    3.2340 O   0  0  0  0  0  1  0  0  0  0  0  0
   10.4400   -2.1840    0.5020 O   0  0  0  0  0  0  0  0  0  0  0  0
   11.0490   -2.4570   -0.7720 C   0  0  0  0  0  2  0  0  0  0  0  0
   11.5390   -1.2020   -1.4700 C   0  0  0  0  0  0  0  0  0  0  0  0
   10.6120   -0.1660   -1.6980 C   0  0  0  0  0  3  0  0  0  0  0  0
   10.9950    1.0190   -2.3220 C   0  0  0  0  0  3  0  0  0  0  0  0
   12.3110    1.1920   -2.7310 C   0  0  0  0  0  3  0  0  0  0  0  0
   13.2440    0.1770   -2.5130 C   0  0  0  0  0  3  0  0  0  0  0  0
   12.8800   -1.0300   -1.8840 C   0  0  0  0  0  0  0  0  0  0  0  0
   13.9170   -2.0490   -1.6760 C   0  0  0  0  0  0  0  0  0  0  0  0
   13.7510   -3.3580   -2.1560 C   0  0  0  0  0  3  0  0  0  0  0  0
   14.7360   -4.3250   -1.9430 C   0  0  0  0  0  3  0  0  0  0  0  0
   15.9010   -3.9950   -1.2540 C   0  0  0  0  0  3  0  0  0  0  0  0
   16.0870   -2.6970   -0.7820 C   0  0  0  0  0  3  0  0  0  0  0  0
   15.1040   -1.7310   -0.9970 C   0  0  0  0  0  3  0  0  0  0  0  0
  1 15  1  0  0  0  0
  1  7  1  0  0  0  0
  2  1  2  0  0  0  0
  3  2  1  0  0  0  0
  3  4  2  0  0  0  0
  4  5  1  0  0  0  0
  5  7  2  0  0  0  0
  5  6  1  0  0  0  0
  8  9  1  0  0  0  0
  9 10  2  0  0  0  0
 11 10  1  0  0  0  0
 12 11  2  0  0  0  0
 13 12  1  0  0  0  0
 13  8  2  0  0  0  0
 14 15  2  0  0  0  0
 14 12  1  0  0  0  0
 15 16  1  0  0  0  0
 16 11  1  0  0  0  0
 16 17  1  0  0  0  0
 17 22  1  0  0  0  0
 18 17  1  0  0  0  0
 18 19  1  0  0  0  0
 19 20  1  0  0  0  0
 20 21  1  0  0  0  0
 22 21  1  0  0  0  0
 23 24  2  0  0  0  0
 24  8  1  0  0  0  0
 24 25  1  0  0  0  0
 26  4  1  0  0  0  0
 27 26  1  0  0  0  0
 28 27  1  0  0  0  0
 29 28  1  0  0  0  0
 30 29  2  0  0  0  0
 31 32  2  0  0  0  0
 31 30  1  0  0  0  0
 32 33  1  0  0  0  0
 33 34  1  0  0  0  0
 33 28  2  0  0  0  0
 34 39  1  0  0  0  0
 35 36  1  0  0  0  0
 35 34  2  0  0  0  0
 36 37  2  0  0  0  0
 37 38  1  0  0  0  0
 39 38  2  0  0  0  0
M  END
>  <minimizedAffinity>
-9.08922291

$$$$

 OpenBabel09122222073D

 39 44  0  0  0  0  0  0  0  0999 V2000
    5.3840   -7.5730    1.9010 C   0  0  0  0  0  0  0  0  0  0  0  0
    4.1920   -7.6530    1.1660 C   0  0  0  0  0  3  0  0  0  0  0  0
    3.2620   -8.6650    1.4220 C   0  0  0  0  0  3  0  0  0  0  0  0
    3.5180   -9.5990    2.4250 C   0  0  0  0  0  0  0  0  0  0  0  0
    4.7420   -9.5700    3.0950 C   0  0  0  0  0  0  0  0  0  0  0  0
    5.0220  -10.4920    4.0280 F   0  0  0  0  0  0  0  0  0  0  0  0
    5.6740   -8.5690    2.8390 C   0  0  0  0  0  3  0  0  0  0  0  0
    9.3920   -3.4560    0.2090 C   0  0  0  0  0  0  0  0  0  0  0  0
    8.8810   -2.7230    1.2920 C   0  0  0  0  0  3  0  0  0  0  0  0
    7.8530   -3.2150    2.1070 C   0  0  0  0  0  3  0  0  0  0  0  0
    7.3380   -4.4820    1.8070 C   0  0  0  0  0  0  0  0  0  0  0  0
    7.8280   -5.2410    0.7480 C   0  0  0  0  0  0  0  0  0  0  0  0
    8.8570   -4.7310   -0.0600 C   0  0  0  0  0  3  0  0  0  0  0  0
    7.1690   -6.4410    0.6610 N   0  0  0  0  0  0  0  0  0  0  0  0
    6.3000   -6.4590    1.6520 C   0  0  0  0  0  0  0  0  0  0  0  0
    6.3320   -5.2580    2.3480 N   0  0  0  0  0  0  0  0  0  0  0  0
    5.4110   -4.8600    3.4100 C   0  0  0  0  0  3  0  0  0  0  0  0
    6.0710   -3.9480    4.4550 C   0  0  0  0  0  2  0  0  0  0  0  0
    5.1010   -3.6110    5.5870 C   0  0  0  0  0  2  0  0  0  0  0  0
    3.7970   -3.0220    5.0580 C   0  0  0  0  0  2  0  0  0  0  0  0
    3.1380   -3.9400    4.0300 C   0  0  0  0  0  2  0  0  0  0  0  0
    4.0890   -4.2750    2.8820 C   0  0  0  0  0  2  0  0  0  0  0  0
   11.1380   -3.7010   -1.3910 O   0  0  0  0  0  0  0  0  0  0  0  0
   10.4970   -2.8820   -0.6580 C   0  0  0  0  0  0  0  0  0  0  0  0
   10.7050   -1.6310   -0.5850 O   0  0  0  0  0  1  0  0  0  0  0  0
    2.6250  -10.5850    2.7520 O   0  0  0  0  0  0  0  0  0  0  0  0
    2.0010  -11.1820    1.6030 C   0  0  0  0  0  2  0  0  0  0  0  0
    2.8360  -12.2910    0.9900 C   0  0  0  0  0  0  0  0  0  0  0  0
    3.3050  -12.1150   -0.3280 C   0  0  0  0  0  3  0  0  0  0  0  0
    4.0870  -13.0850   -0.9490 C   0  0  0  0  0  3  0  0  0  0  0  0
    4.4170  -14.2500   -0.2670 C   0  0  0  0  0  3  0  0  0  0  0  0
    3.9630  -14.4410    1.0390 C   0  0  0  0  0  3  0  0  0  0  0  0
    3.1710  -13.4740    1.6880 C   0  0  0  0  0  0  0  0  0  0  0  0
    2.7390  -13.7360    3.0670 C   0  0  0  0  0  0  0  0  0  0  0  0
    1.4590  -14.2430    3.3390 C   0  0  0  0  0  3  0  0  0  0  0  0
    1.0500  -14.4780    4.6550 C   0  0  0  0  0  3  0  0  0  0  0  0
    1.9190  -14.2160    5.7120 C   0  0  0  0  0  3  0  0  0  0  0  0
    3.1980  -13.7250    5.4580 C   0  0  0  0  0  3  0  0  0  0  0  0
    3.6060  -13.4930    4.1440 C   0  0  0  0  0  3  0  0  0  0  0  0
  1  7  1  0  0  0  0
  2  3  1  0  0  0  0
  2  1  2  0  0  0  0
  3  4  2  0  0  0  0
  4 26  1  0  0  0  0
  4  5  1  0  0  0  0
  5  6  1  0  0  0  0
  7  5  2  0  0  0  0
  8  9  1  0  0  0  0
  9 10  2  0  0  0  0
 11 10  1  0  0  0  0
 11 16  1  0  0  0  0
 12 11  2  0  0  0  0
 13  8  2  0  0  0  0
 13 12  1  0  0  0  0
 14 12  1  0  0  0  0
 14 15  2  0  0  0  0
 15  1  1  0  0  0  0
 15 16  1  0  0  0  0
 16 17  1  0  0  0  0
 17 18  1  0  0  0  0
 18 19  1  0  0  0  0
 20 19  1  0  0  0  0
 21 20  1  0  0  0  0
 22 17  1  0  0  0  0
 22 21  1  0  0  0  0
 23 24  2  0  0  0  0
 24 25  1  0  0  0  0
 24  8  1  0  0  0  0
 27 26  1  0  0  0  0
 28 27  1  0  0  0  0
 28 33  1  0  0  0  0
 29 28  2  0  0  0  0
 30 29  1  0  0  0  0
 30 31  2  0  0  0  0
 31 32  1  0  0  0  0
 32 33  2  0  0  0  0
 33 34  1  0  0  0  0
 34 35  2  0  0  0  0
 34 39  1  0  0  0  0
 35 36  1  0  0  0  0
 36 37  2  0  0  0  0
 38 37  1  0  0  0  0
 39 38  2  0  0  0  0
M  END
>  <minimizedAffinity>
-8.98202705

$$$$

 OpenBabel09122222073D

 39 44  0  0  0  0  0  0  0  0999 V2000
    5.6450   -7.3480    1.7290 C   0  0  0  0  0  0  0  0  0  0  0  0
    6.0110   -8.3830    2.6010 C   0  0  0  0  0  3  0  0  0  0  0  0
    5.2250   -9.5330    2.7150 C   0  0  0  0  0  3  0  0  0  0  0  0
    4.0690   -9.6560    1.9450 C   0  0  0  0  0  0  0  0  0  0  0  0
    3.6600   -8.5890    1.1440 C   0  0  0  0  0  0  0  0  0  0  0  0
    2.5240   -8.6740    0.4360 F   0  0  0  0  0  0  0  0  0  0  0  0
    4.4360   -7.4400    1.0320 C   0  0  0  0  0  3  0  0  0  0  0  0
    9.5780   -3.0110    0.4610 C   0  0  0  0  0  0  0  0  0  0  0  0
    8.9860   -2.3540    1.5520 C   0  0  0  0  0  3  0  0  0  0  0  0
    7.9360   -2.9230    2.2850 C   0  0  0  0  0  3  0  0  0  0  0  0
    7.4840   -4.1900    1.8940 C   0  0  0  0  0  0  0  0  0  0  0  0
    8.0560   -4.8750    0.8260 C   0  0  0  0  0  0  0  0  0  0  0  0
    9.1050   -4.2890    0.1010 C   0  0  0  0  0  3  0  0  0  0  0  0
    7.4480   -6.0910    0.6440 N   0  0  0  0  0  0  0  0  0  0  0  0
    6.5300   -6.1910    1.5850 C   0  0  0  0  0  0  0  0  0  0  0  0
    6.4820   -5.0270    2.3420 N   0  0  0  0  0  0  0  0  0  0  0  0
    5.4930   -4.7180    3.3720 C   0  0  0  0  0  3  0  0  0  0  0  0
    6.0640   -3.8390    4.4950 C   0  0  0  0  0  2  0  0  0  0  0  0
    5.0270   -3.5950    5.5900 C   0  0  0  0  0  2  0  0  0  0  0  0
    3.7290   -3.0250    5.0230 C   0  0  0  0  0  2  0  0  0  0  0  0
    3.1590   -3.9110    3.9170 C   0  0  0  0  0  2  0  0  0  0  0  0
    4.1790   -4.1530    2.8060 C   0  0  0  0  0  2  0  0  0  0  0  0
   10.4670   -1.2090   -0.8160 O   0  0  0  0  0  0  0  0  0  0  0  0
   10.7030   -2.3550   -0.3160 C   0  0  0  0  0  0  0  0  0  0  0  0
   11.7950   -2.9970   -0.4160 O   0  0  0  0  0  1  0  0  0  0  0  0
    3.2830  -10.7770    1.9790 O   0  0  0  0  0  0  0  0  0  0  0  0
    3.1060  -11.3000    3.3070 C   0  0  0  0  0  2  0  0  0  0  0  0
    4.0550  -12.4430    3.6200 C   0  0  0  0  0  0  0  0  0  0  0  0
    4.6680  -12.4650    4.8880 C   0  0  0  0  0  3  0  0  0  0  0  0
    5.5400  -13.4900    5.2490 C   0  0  0  0  0  3  0  0  0  0  0  0
    5.8160  -14.5120    4.3490 C   0  0  0  0  0  3  0  0  0  0  0  0
    5.2170  -14.5070    3.0880 C   0  0  0  0  0  3  0  0  0  0  0  0
    4.3320  -13.4820    2.7020 C   0  0  0  0  0  0  0  0  0  0  0  0
    3.7280  -13.5470    1.3650 C   0  0  0  0  0  0  0  0  0  0  0  0
    4.4380  -13.1220    0.2300 C   0  0  0  0  0  3  0  0  0  0  0  0
    3.8520  -13.1760   -1.0380 C   0  0  0  0  0  3  0  0  0  0  0  0
    2.5550  -13.6610   -1.1870 C   0  0  0  0  0  3  0  0  0  0  0  0
    1.8420  -14.0990   -0.0730 C   0  0  0  0  0  3  0  0  0  0  0  0
    2.4280  -14.0470    1.1930 C   0  0  0  0  0  3  0  0  0  0  0  0
  1  2  1  0  0  0  0
  2  3  2  0  0  0  0
  4 26  1  0  0  0  0
  4  3  1  0  0  0  0
  5  4  2  0  0  0  0
  6  5  1  0  0  0  0
  7  5  1  0  0  0  0
  7  1  2  0  0  0  0
  8  9  1  0  0  0  0
  9 10  2  0  0  0  0
 11 10  1  0  0  0  0
 11 16  1  0  0  0  0
 12 11  2  0  0  0  0
 13  8  2  0  0  0  0
 13 12  1  0  0  0  0
 14 12  1  0  0  0  0
 14 15  2  0  0  0  0
 15  1  1  0  0  0  0
 15 16  1  0  0  0  0
 16 17  1  0  0  0  0
 17 18  1  0  0  0  0
 18 19  1  0  0  0  0
 20 19  1  0  0  0  0
 21 20  1  0  0  0  0
 22 17  1  0  0  0  0
 22 21  1  0  0  0  0
 23 24  2  0  0  0  0
 24  8  1  0  0  0  0
 25 24  1  0  0  0  0
 26 27  1  0  0  0  0
 27 28  1  0  0  0  0
 28 29  1  0  0  0  0
 29 30  2  0  0  0  0
 31 30  1  0  0  0  0
 32 31  2  0  0  0  0
 33 32  1  0  0  0  0
 33 28  2  0  0  0  0
 34 33  1  0  0  0  0
 35 34  2  0  0  0  0
 36 35  1  0  0  0  0
 37 36  2  0  0  0  0
 37 38  1  0  0  0  0
 38 39  2  0  0  0  0
 39 34  1  0  0  0  0
M  END
>  <minimizedAffinity>
-8.94911194

$$$$

 OpenBabel09122222073D

 39 44  0  0  0  0  0  0  0  0999 V2000
    4.7670   -7.4340    2.0560 C   0  0  0  0  0  0  0  0  0  0  0  0
    4.1600   -8.0750    0.9660 C   0  0  0  0  0  3  0  0  0  0  0  0
    3.1050   -8.9700    1.1610 C   0  0  0  0  0  3  0  0  0  0  0  0
    2.6430   -9.2200    2.4530 C   0  0  0  0  0  0  0  0  0  0  0  0
    3.3030   -8.6490    3.5420 C   0  0  0  0  0  0  0  0  0  0  0  0
    2.9020   -8.9200    4.7920 F   0  0  0  0  0  0  0  0  0  0  0  0
    4.3600   -7.7630    3.3530 C   0  0  0  0  0  3  0  0  0  0  0  0
    9.2780   -3.8790    0.3550 C   0  0  0  0  0  0  0  0  0  0  0  0
    8.8800   -3.0940    1.4490 C   0  0  0  0  0  3  0  0  0  0  0  0
    7.8030   -3.4490    2.2710 C   0  0  0  0  0  3  0  0  0  0  0  0
    7.1190   -4.6330    1.9660 C   0  0  0  0  0  0  0  0  0  0  0  0
    7.4930   -5.4420    0.8960 C   0  0  0  0  0  0  0  0  0  0  0  0
    8.5740   -5.0680    0.0830 C   0  0  0  0  0  3  0  0  0  0  0  0
    6.6780   -6.5420    0.8070 N   0  0  0  0  0  0  0  0  0  0  0  0
    5.8230   -6.4510    1.8070 C   0  0  0  0  0  0  0  0  0  0  0  0
    6.0220   -5.2710    2.5120 N   0  0  0  0  0  0  0  0  0  0  0  0
    5.1720   -4.7620    3.5850 C   0  0  0  0  0  3  0  0  0  0  0  0
    5.9340   -3.8550    4.5630 C   0  0  0  0  0  2  0  0  0  0  0  0
    5.0350   -3.4000    5.7120 C   0  0  0  0  0  2  0  0  0  0  0  0
    3.7550   -2.7430    5.2020 C   0  0  0  0  0  2  0  0  0  0  0  0
    2.9950   -3.6560    4.2420 C   0  0  0  0  0  2  0  0  0  0  0  0
    3.8760   -4.1090    3.0780 C   0  0  0  0  0  2  0  0  0  0  0  0
   11.4520   -4.2240   -0.5520 O   0  0  0  0  0  1  0  0  0  0  0  0
   10.4420   -3.4510   -0.5180 C   0  0  0  0  0  0  0  0  0  0  0  0
   10.3270   -2.3530   -1.1470 O   0  0  0  0  0  0  0  0  0  0  0  0
    1.5830  -10.0510    2.7040 O   0  0  0  0  0  0  0  0  0  0  0  0
    1.7420  -11.3570    2.1230 C   0  0  0  0  0  2  0  0  0  0  0  0
    2.3190  -12.3670    3.0970 C   0  0  0  0  0  0  0  0  0  0  0  0
    2.2290  -12.0830    4.4750 C   0  0  0  0  0  3  0  0  0  0  0  0
    2.7260  -12.9710    5.4270 C   0  0  0  0  0  3  0  0  0  0  0  0
    3.3220  -14.1580    5.0210 C   0  0  0  0  0  3  0  0  0  0  0  0
    3.4190  -14.4570    3.6610 C   0  0  0  0  0  3  0  0  0  0  0  0
    2.9250  -13.5750    2.6810 C   0  0  0  0  0  0  0  0  0  0  0  0
    3.0500  -13.9590    1.2690 C   0  0  0  0  0  0  0  0  0  0  0  0
    1.9120  -14.1620    0.4720 C   0  0  0  0  0  3  0  0  0  0  0  0
    2.0380  -14.5410   -0.8670 C   0  0  0  0  0  3  0  0  0  0  0  0
    3.3020  -14.7130   -1.4270 C   0  0  0  0  0  3  0  0  0  0  0  0
    4.4410  -14.5030   -0.6540 C   0  0  0  0  0  3  0  0  0  0  0  0
    4.3150  -14.1230    0.6830 C   0  0  0  0  0  3  0  0  0  0  0  0
  1  7  1  0  0  0  0
  2  3  1  0  0  0  0
  2  1  2  0  0  0  0
  3  4  2  0  0  0  0
  4 26  1  0  0  0  0
  4  5  1  0  0  0  0
  5  6  1  0  0  0  0
  7  5  2  0  0  0  0
  8  9  1  0  0  0  0
  9 10  2  0  0  0  0
 11 10  1  0  0  0  0
 11 16  1  0  0  0  0
 12 11  2  0  0  0  0
 13  8  2  0  0  0  0
 13 12  1  0  0  0  0
 14 12  1  0  0  0  0
 14 15  2  0  0  0  0
 15  1  1  0  0  0  0
 15 16  1  0  0  0  0
 16 17  1  0  0  0  0
 17 18  1  0  0  0  0
 18 19  1  0  0  0  0
 20 19  1  0  0  0  0
 21 20  1  0  0  0  0
 22 17  1  0  0  0  0
 22 21  1  0  0  0  0
 23 24  1  0  0  0  0
 24  8  1  0  0  0  0
 25 24  2  0  0  0  0
 27 26  1  0  0  0  0
 27 28  1  0  0  0  0
 28 29  1  0  0  0  0
 29 30  2  0  0  0  0
 31 30  1  0  0  0  0
 32 31  2  0  0  0  0
 33 28  2  0  0  0  0
 33 32  1  0  0  0  0
 34 33  1  0  0  0  0
 35 34  2  0  0  0  0
 36 35  1  0  0  0  0
 37 36  2  0  0  0  0
 37 38  1  0  0  0  0
 38 39  2  0  0  0  0
 39 34  1  0  0  0  0
M  END
>  <minimizedAffinity>
-8.64163017

$$$$

 OpenBabel09122222073D

 39 44  0  0  0  0  0  0  0  0999 V2000
    5.5430   -7.2750    1.4100 C   0  0  0  0  0  0  0  0  0  0  0  0
    4.4480   -7.3170    0.5340 C   0  0  0  0  0  3  0  0  0  0  0  0
    3.4790   -8.3170    0.6500 C   0  0  0  0  0  3  0  0  0  0  0  0
    3.5960   -9.2770    1.6540 C   0  0  0  0  0  0  0  0  0  0  0  0
    4.7290   -9.2860    2.4680 C   0  0  0  0  0  0  0  0  0  0  0  0
    4.8790  -10.2330    3.4060 F   0  0  0  0  0  0  0  0  0  0  0  0
    5.7000   -8.2970    2.3520 C   0  0  0  0  0  3  0  0  0  0  0  0
    9.7130   -3.1350    0.2500 C   0  0  0  0  0  0  0  0  0  0  0  0
    9.2110   -2.5140    1.4050 C   0  0  0  0  0  3  0  0  0  0  0  0
    8.1540   -3.0590    2.1460 C   0  0  0  0  0  3  0  0  0  0  0  0
    7.6010   -4.2640    1.6950 C   0  0  0  0  0  0  0  0  0  0  0  0
    8.0820   -4.9140    0.5620 C   0  0  0  0  0  0  0  0  0  0  0  0
    9.1400   -4.3520   -0.1700 C   0  0  0  0  0  3  0  0  0  0  0  0
    7.3840   -6.0720    0.3300 N   0  0  0  0  0  0  0  0  0  0  0  0
    6.5000   -6.1730    1.3020 C   0  0  0  0  0  0  0  0  0  0  0  0
    6.5610   -5.0610    2.1330 N   0  0  0  0  0  0  0  0  0  0  0  0
    5.6370   -4.7560    3.2220 C   0  0  0  0  0  3  0  0  0  0  0  0
    6.2590   -3.8380    4.2850 C   0  0  0  0  0  2  0  0  0  0  0  0
    5.2930   -3.5980    5.4440 C   0  0  0  0  0  2  0  0  0  0  0  0
    3.9440   -3.0750    4.9570 C   0  0  0  0  0  2  0  0  0  0  0  0
    3.3240   -4.0000    3.9110 C   0  0  0  0  0  2  0  0  0  0  0  0
    4.2730   -4.2380    2.7370 C   0  0  0  0  0  2  0  0  0  0  0  0
   12.0300   -2.7220   -0.1090 O   0  0  0  0  0  1  0  0  0  0  0  0
   10.8500   -2.5050   -0.5320 C   0  0  0  0  0  0  0  0  0  0  0  0
   10.5420   -1.8040   -1.5460 O   0  0  0  0  0  0  0  0  0  0  0  0
    2.6540  -10.2530    1.8460 O   0  0  0  0  0  0  0  0  0  0  0  0
    1.6300   -9.8710    2.7800 C   0  0  0  0  0  2  0  0  0  0  0  0
    1.1930  -11.0170    3.6750 C   0  0  0  0  0  0  0  0  0  0  0  0
    1.8680  -12.2480    3.5500 C   0  0  0  0  0  3  0  0  0  0  0  0
    1.5290  -13.3390    4.3480 C   0  0  0  0  0  3  0  0  0  0  0  0
    0.5100  -13.2210    5.2840 C   0  0  0  0  0  3  0  0  0  0  0  0
   -0.1690  -12.0090    5.4230 C   0  0  0  0  0  3  0  0  0  0  0  0
    0.1570  -10.8920    4.6280 C   0  0  0  0  0  0  0  0  0  0  0  0
   -0.5900   -9.6450    4.8370 C   0  0  0  0  0  0  0  0  0  0  0  0
   -0.0030   -8.5540    5.4980 C   0  0  0  0  0  3  0  0  0  0  0  0
   -0.7240   -7.3750    5.7040 C   0  0  0  0  0  3  0  0  0  0  0  0
   -2.0360   -7.2700    5.2480 C   0  0  0  0  0  3  0  0  0  0  0  0
   -2.6290   -8.3390    4.5790 C   0  0  0  0  0  3  0  0  0  0  0  0
   -1.9080   -9.5160    4.3710 C   0  0  0  0  0  3  0  0  0  0  0  0
  1  7  1  0  0  0  0
  2  3  1  0  0  0  0
  2  1  2  0  0  0  0
  3  4  2  0  0  0  0
  4 26  1  0  0  0  0
  4  5  1  0  0  0  0
  5  6  1  0  0  0  0
  7  5  2  0  0  0  0
  8  9  1  0  0  0  0
  9 10  2  0  0  0  0
 11 16  1  0  0  0  0
 11 10  1  0  0  0  0
 12 11  2  0  0  0  0
 13  8  2  0  0  0  0
 13 12  1  0  0  0  0
 14 12  1  0  0  0  0
 14 15  2  0  0  0  0
 15  1  1  0  0  0  0
 15 16  1  0  0  0  0
 16 17  1  0  0  0  0
 17 18  1  0  0  0  0
 18 19  1  0  0  0  0
 20 19  1  0  0  0  0
 21 20  1  0  0  0  0
 22 17  1  0  0  0  0
 22 21  1  0  0  0  0
 24 23  1  0  0  0  0
 24  8  1  0  0  0  0
 25 24  2  0  0  0  0
 26 27  1  0  0  0  0
 27 28  1  0  0  0  0
 28 33  1  0  0  0  0
 29 28  2  0  0  0  0
 29 30  1  0  0  0  0
 30 31  2  0  0  0  0
 31 32  1  0  0  0  0
 33 34  1  0  0  0  0
 33 32  2  0  0  0  0
 34 35  1  0  0  0  0
 35 36  2  0  0  0  0
 37 36  1  0  0  0  0
 38 37  2  0  0  0  0
 39 38  1  0  0  0  0
 39 34  2  0  0  0  0
M  END
>  <minimizedAffinity>
-8.53075218

$$$$

 OpenBabel09122222073D

 39 44  0  0  0  0  0  0  0  0999 V2000
    6.2270   -6.6510    0.8120 C   0  0  0  0  0  0  0  0  0  0  0  0
    7.5130   -6.5450    1.3600 C   0  0  0  0  0  3  0  0  0  0  0  0
    8.4830   -5.7410    0.7560 C   0  0  0  0  0  3  0  0  0  0  0  0
    8.1650   -5.0290   -0.4000 C   0  0  0  0  0  0  0  0  0  0  0  0
    6.9140   -5.2040   -0.9930 C   0  0  0  0  0  0  0  0  0  0  0  0
    6.6120   -4.5630   -2.1320 F   0  0  0  0  0  0  0  0  0  0  0  0
    5.9480   -6.0080   -0.3980 C   0  0  0  0  0  3  0  0  0  0  0  0
    2.3060  -10.5320    3.1460 C   0  0  0  0  0  0  0  0  0  0  0  0
    2.0430   -9.4960    4.0560 C   0  0  0  0  0  3  0  0  0  0  0  0
    2.7090   -8.2650    3.9990 C   0  0  0  0  0  3  0  0  0  0  0  0
    3.6650   -8.0920    2.9900 C   0  0  0  0  0  0  0  0  0  0  0  0
    3.9440   -9.0930    2.0630 C   0  0  0  0  0  0  0  0  0  0  0  0
    3.2670  -10.3210    2.1380 C   0  0  0  0  0  3  0  0  0  0  0  0
    4.9070   -8.6840    1.1770 N   0  0  0  0  0  0  0  0  0  0  0  0
    5.2180   -7.4470    1.5120 C   0  0  0  0  0  0  0  0  0  0  0  0
    4.5190   -7.0610    2.6490 N   0  0  0  0  0  0  0  0  0  0  0  0
    4.7160   -5.8200    3.3930 C   0  0  0  0  0  3  0  0  0  0  0  0
    4.1540   -4.5940    2.6570 C   0  0  0  0  0  2  0  0  0  0  0  0
    4.4410   -3.3060    3.4280 C   0  0  0  0  0  2  0  0  0  0  0  0
    3.9410   -3.3850    4.8680 C   0  0  0  0  0  2  0  0  0  0  0  0
    4.5140   -4.5980    5.5990 C   0  0  0  0  0  2  0  0  0  0  0  0
    4.2240   -5.8970    4.8490 C   0  0  0  0  0  2  0  0  0  0  0  0
    0.3020  -11.8070    3.2980 O   0  0  0  0  0  1  0  0  0  0  0  0
    1.5720  -11.8550    3.2500 C   0  0  0  0  0  0  0  0  0  0  0  0
    2.2770  -12.9120    3.2880 O   0  0  0  0  0  0  0  0  0  0  0  0
    9.0590   -4.1900   -1.0120 O   0  0  0  0  0  0  0  0  0  0  0  0
   10.3120   -4.0960   -0.3130 C   0  0  0  0  0  2  0  0  0  0  0  0
   11.3250   -3.2280   -1.0370 C   0  0  0  0  0  0  0  0  0  0  0  0
   12.2150   -3.8560   -1.9320 C   0  0  0  0  0  3  0  0  0  0  0  0
   13.1620   -3.1200   -2.6400 C   0  0  0  0  0  3  0  0  0  0  0  0
   13.2400   -1.7440   -2.4670 C   0  0  0  0  0  3  0  0  0  0  0  0
   12.3660   -1.1050   -1.5860 C   0  0  0  0  0  3  0  0  0  0  0  0
   11.4000   -1.8280   -0.8590 C   0  0  0  0  0  0  0  0  0  0  0  0
   10.5050   -1.0880    0.0410 C   0  0  0  0  0  0  0  0  0  0  0  0
   10.3180    0.2960   -0.1030 C   0  0  0  0  0  3  0  0  0  0  0  0
    9.4760    0.9950    0.7640 C   0  0  0  0  0  3  0  0  0  0  0  0
    8.8050    0.3190    1.7810 C   0  0  0  0  0  3  0  0  0  0  0  0
    8.9700   -1.0570    1.9300 C   0  0  0  0  0  3  0  0  0  0  0  0
    9.8100   -1.7550    1.0620 C   0  0  0  0  0  3  0  0  0  0  0  0
  1  2  1  0  0  0  0
  1 15  1  0  0  0  0
  3  2  2  0  0  0  0
  4  3  1  0  0  0  0
  5  4  2  0  0  0  0
  5  7  1  0  0  0  0
  6  5  1  0  0  0  0
  7  1  2  0  0  0  0
  8 24  1  0  0  0  0
  8  9  1  0  0  0  0
 10  9  2  0  0  0  0
 11 10  1  0  0  0  0
 12 13  1  0  0  0  0
 12 11  2  0  0  0  0
 13  8  2  0  0  0  0
 14 15  2  0  0  0  0
 14 12  1  0  0  0  0
 15 16  1  0  0  0  0
 16 11  1  0  0  0  0
 16 17  1  0  0  0  0
 17 22  1  0  0  0  0
 18 17  1  0  0  0  0
 18 19  1  0  0  0  0
 19 20  1  0  0  0  0
 20 21  1  0  0  0  0
 22 21  1  0  0  0  0
 24 25  2  0  0  0  0
 24 23  1  0  0  0  0
 26  4  1  0  0  0  0
 26 27  1  0  0  0  0
 28 33  1  0  0  0  0
 28 27  1  0  0  0  0
 29 28  2  0  0  0  0
 30 31  2  0  0  0  0
 30 29  1  0  0  0  0
 31 32  1  0  0  0  0
 32 33  2  0  0  0  0
 33 34  1  0  0  0  0
 34 39  1  0  0  0  0
 35 34  2  0  0  0  0
 35 36  1  0  0  0  0
 36 37  2  0  0  0  0
 37 38  1  0  0  0  0
 39 38  2  0  0  0  0
M  END
>  <minimizedAffinity>
-8.28139305

$$$$

 OpenBabel09122222073D

 39 44  0  0  0  0  0  0  0  0999 V2000
    7.7730   -4.2090    1.7950 C   0  0  0  0  0  0  0  0  0  0  0  0
    7.8780   -3.1920    2.7560 C   0  0  0  0  0  3  0  0  0  0  0  0
    8.6670   -2.0640    2.5180 C   0  0  0  0  0  3  0  0  0  0  0  0
    9.3500   -1.9430    1.3090 C   0  0  0  0  0  0  0  0  0  0  0  0
    9.3150   -2.9940    0.3910 C   0  0  0  0  0  0  0  0  0  0  0  0
   10.0080   -2.9130   -0.7540 F   0  0  0  0  0  0  0  0  0  0  0  0
    8.5360   -4.1230    0.6270 C   0  0  0  0  0  3  0  0  0  0  0  0
    4.7150   -9.3160    2.4640 C   0  0  0  0  0  0  0  0  0  0  0  0
    3.7970   -8.5070    3.1530 C   0  0  0  0  0  3  0  0  0  0  0  0
    4.0000   -7.1330    3.3300 C   0  0  0  0  0  3  0  0  0  0  0  0
    5.1670   -6.5750    2.7920 C   0  0  0  0  0  0  0  0  0  0  0  0
    6.0930   -7.3440    2.0930 C   0  0  0  0  0  0  0  0  0  0  0  0
    5.8740   -8.7210    1.9270 C   0  0  0  0  0  3  0  0  0  0  0  0
    7.1420   -6.5730    1.6620 N   0  0  0  0  0  0  0  0  0  0  0  0
    6.8820   -5.3410    2.0520 C   0  0  0  0  0  0  0  0  0  0  0  0
    5.7080   -5.3040    2.7930 N   0  0  0  0  0  0  0  0  0  0  0  0
    5.1850   -4.1440    3.5100 C   0  0  0  0  0  3  0  0  0  0  0  0
    3.7010   -3.8810    3.2110 C   0  0  0  0  0  2  0  0  0  0  0  0
    3.2080   -2.6210    3.9180 C   0  0  0  0  0  2  0  0  0  0  0  0
    3.4880   -2.6670    5.4180 C   0  0  0  0  0  2  0  0  0  0  0  0
    4.9680   -2.9130    5.7090 C   0  0  0  0  0  2  0  0  0  0  0  0
    5.4740   -4.1800    5.0200 C   0  0  0  0  0  2  0  0  0  0  0  0
    5.3210  -11.5900    2.8220 O   0  0  0  0  0  1  0  0  0  0  0  0
    4.4650  -10.8040    2.3060 C   0  0  0  0  0  0  0  0  0  0  0  0
    3.4250  -11.1550    1.6660 O   0  0  0  0  0  0  0  0  0  0  0  0
   10.1020   -0.8410    1.0000 O   0  0  0  0  0  0  0  0  0  0  0  0
    9.3280    0.3700    0.9420 C   0  0  0  0  0  2  0  0  0  0  0  0
   10.1900    1.6140    0.8330 C   0  0  0  0  0  0  0  0  0  0  0  0
   10.0600    2.5990    1.8330 C   0  0  0  0  0  3  0  0  0  0  0  0
   10.8280    3.7600    1.8050 C   0  0  0  0  0  3  0  0  0  0  0  0
   11.7410    3.9610    0.7770 C   0  0  0  0  0  3  0  0  0  0  0  0
   11.8850    2.9970   -0.2220 C   0  0  0  0  0  3  0  0  0  0  0  0
   11.1190    1.8140   -0.2140 C   0  0  0  0  0  0  0  0  0  0  0  0
   11.3320    0.8370   -1.2890 C   0  0  0  0  0  0  0  0  0  0  0  0
   10.2910    0.4860   -2.1630 C   0  0  0  0  0  3  0  0  0  0  0  0
   10.4970   -0.4540   -3.1760 C   0  0  0  0  0  3  0  0  0  0  0  0
   11.7480   -1.0480   -3.3320 C   0  0  0  0  0  3  0  0  0  0  0  0
   12.7950   -0.7010   -2.4820 C   0  0  0  0  0  3  0  0  0  0  0  0
   12.5890    0.2390   -1.4710 C   0  0  0  0  0  3  0  0  0  0  0  0
  1 15  1  0  0  0  0
  1  2  1  0  0  0  0
  3  2  2  0  0  0  0
  4  3  1  0  0  0  0
  5  7  1  0  0  0  0
  5  4  2  0  0  0  0
  6  5  1  0  0  0  0
  7  1  2  0  0  0  0
  8  9  1  0  0  0  0
  9 10  2  0  0  0  0
 11 16  1  0  0  0  0
 11 10  1  0  0  0  0
 12 11  2  0  0  0  0
 13 12  1  0  0  0  0
 13  8  2  0  0  0  0
 14 15  2  0  0  0  0
 14 12  1  0  0  0  0
 15 16  1  0  0  0  0
 16 17  1  0  0  0  0
 17 22  1  0  0  0  0
 18 17  1  0  0  0  0
 18 19  1  0  0  0  0
 19 20  1  0  0  0  0
 20 21  1  0  0  0  0
 22 21  1  0  0  0  0
 24  8  1  0  0  0  0
 24 23  1  0  0  0  0
 25 24  2  0  0  0  0
 26  4  1  0  0  0  0
 27 26  1  0  0  0  0
 28 27  1  0  0  0  0
 28 29  1  0  0  0  0
 30 29  2  0  0  0  0
 31 30  1  0  0  0  0
 32 33  1  0  0  0  0
 32 31  2  0  0  0  0
 33 28  2  0  0  0  0
 34 33  1  0  0  0  0
 35 34  2  0  0  0  0
 36 35  1  0  0  0  0
 37 36  2  0  0  0  0
 37 38  1  0  0  0  0
 38 39  2  0  0  0  0
 39 34  1  0  0  0  0
M  END
>  <minimizedAffinity>
-8.11670971

$$$$
