
 OpenBabel09122222393D

 39 44  0  0  0  0  0  0  0  0999 V2000
    5.6450   -7.3480    1.7290 C   0  0  0  0  0  0  0  0  0  0  0  0
    6.0110   -8.3830    2.6010 C   0  0  0  0  0  3  0  0  0  0  0  0
    5.2250   -9.5330    2.7150 C   0  0  0  0  0  3  0  0  0  0  0  0
    4.0690   -9.6560    1.9450 C   0  0  0  0  0  0  0  0  0  0  0  0
    3.6600   -8.5890    1.1440 C   0  0  0  0  0  0  0  0  0  0  0  0
    2.5240   -8.6740    0.4360 F   0  0  0  0  0  0  0  0  0  0  0  0
    4.4360   -7.4400    1.0320 C   0  0  0  0  0  3  0  0  0  0  0  0
    9.5780   -3.0110    0.4610 C   0  0  0  0  0  0  0  0  0  0  0  0
    8.9860   -2.3540    1.5520 C   0  0  0  0  0  3  0  0  0  0  0  0
    7.9360   -2.9230    2.2850 C   0  0  0  0  0  3  0  0  0  0  0  0
    7.4840   -4.1900    1.8940 C   0  0  0  0  0  0  0  0  0  0  0  0
    8.0560   -4.8750    0.8260 C   0  0  0  0  0  0  0  0  0  0  0  0
    9.1050   -4.2890    0.1010 C   0  0  0  0  0  3  0  0  0  0  0  0
    7.4480   -6.0910    0.6440 N   0  0  0  0  0  0  0  0  0  0  0  0
    6.5300   -6.1910    1.5850 C   0  0  0  0  0  0  0  0  0  0  0  0
    6.4820   -5.0270    2.3420 N   0  0  0  0  0  0  0  0  0  0  0  0
    5.4930   -4.7180    3.3720 C   0  0  0  0  0  3  0  0  0  0  0  0
    6.0640   -3.8390    4.4950 C   0  0  0  0  0  2  0  0  0  0  0  0
    5.0270   -3.5950    5.5900 C   0  0  0  0  0  2  0  0  0  0  0  0
    3.7290   -3.0250    5.0230 C   0  0  0  0  0  2  0  0  0  0  0  0
    3.1590   -3.9110    3.9170 C   0  0  0  0  0  2  0  0  0  0  0  0
    4.1790   -4.1530    2.8060 C   0  0  0  0  0  2  0  0  0  0  0  0
   10.4670   -1.2090   -0.8160 O   0  0  0  0  0  0  0  0  0  0  0  0
   10.7030   -2.3550   -0.3160 C   0  0  0  0  0  0  0  0  0  0  0  0
   11.7950   -2.9970   -0.4160 O   0  0  0  0  0  1  0  0  0  0  0  0
    3.2830  -10.7770    1.9790 O   0  0  0  0  0  0  0  0  0  0  0  0
    3.1060  -11.3000    3.3070 C   0  0  0  0  0  2  0  0  0  0  0  0
    4.0550  -12.4430    3.6200 C   0  0  0  0  0  0  0  0  0  0  0  0
    4.6680  -12.4650    4.8880 C   0  0  0  0  0  3  0  0  0  0  0  0
    5.5400  -13.4900    5.2490 C   0  0  0  0  0  3  0  0  0  0  0  0
    5.8160  -14.5120    4.3490 C   0  0  0  0  0  3  0  0  0  0  0  0
    5.2170  -14.5070    3.0880 C   0  0  0  0  0  3  0  0  0  0  0  0
    4.3320  -13.4820    2.7020 C   0  0  0  0  0  0  0  0  0  0  0  0
    3.7280  -13.5470    1.3650 C   0  0  0  0  0  0  0  0  0  0  0  0
    4.4380  -13.1220    0.2300 C   0  0  0  0  0  3  0  0  0  0  0  0
    3.8520  -13.1760   -1.0380 C   0  0  0  0  0  3  0  0  0  0  0  0
    2.5550  -13.6610   -1.1870 C   0  0  0  0  0  3  0  0  0  0  0  0
    1.8420  -14.0990   -0.0730 C   0  0  0  0  0  3  0  0  0  0  0  0
    2.4280  -14.0470    1.1930 C   0  0  0  0  0  3  0  0  0  0  0  0
  1  2  1  0  0  0  0
  2  3  2  0  0  0  0
  4 26  1  0  0  0  0
  4  3  1  0  0  0  0
  5  4  2  0  0  0  0
  6  5  1  0  0  0  0
  7  5  1  0  0  0  0
  7  1  2  0  0  0  0
  8  9  1  0  0  0  0
  9 10  2  0  0  0  0
 11 10  1  0  0  0  0
 11 16  1  0  0  0  0
 12 11  2  0  0  0  0
 13  8  2  0  0  0  0
 13 12  1  0  0  0  0
 14 12  1  0  0  0  0
 14 15  2  0  0  0  0
 15  1  1  0  0  0  0
 15 16  1  0  0  0  0
 16 17  1  0  0  0  0
 17 18  1  0  0  0  0
 18 19  1  0  0  0  0
 20 19  1  0  0  0  0
 21 20  1  0  0  0  0
 22 17  1  0  0  0  0
 22 21  1  0  0  0  0
 23 24  2  0  0  0  0
 24  8  1  0  0  0  0
 25 24  1  0  0  0  0
 26 27  1  0  0  0  0
 27 28  1  0  0  0  0
 28 29  1  0  0  0  0
 29 30  2  0  0  0  0
 31 30  1  0  0  0  0
 32 31  2  0  0  0  0
 33 32  1  0  0  0  0
 33 28  2  0  0  0  0
 34 33  1  0  0  0  0
 35 34  2  0  0  0  0
 36 35  1  0  0  0  0
 37 36  2  0  0  0  0
 37 38  1  0  0  0  0
 38 39  2  0  0  0  0
 39 34  1  0  0  0  0
M  END
>  <minimizedAffinity>
-8.94911194

$$$$
