
 OpenBabel09122222393D

 39 44  0  0  0  0  0  0  0  0999 V2000
    5.3840   -7.5730    1.9010 C   0  0  0  0  0  0  0  0  0  0  0  0
    4.1920   -7.6530    1.1660 C   0  0  0  0  0  3  0  0  0  0  0  0
    3.2620   -8.6650    1.4220 C   0  0  0  0  0  3  0  0  0  0  0  0
    3.5180   -9.5990    2.4250 C   0  0  0  0  0  0  0  0  0  0  0  0
    4.7420   -9.5700    3.0950 C   0  0  0  0  0  0  0  0  0  0  0  0
    5.0220  -10.4920    4.0280 F   0  0  0  0  0  0  0  0  0  0  0  0
    5.6740   -8.5690    2.8390 C   0  0  0  0  0  3  0  0  0  0  0  0
    9.3920   -3.4560    0.2090 C   0  0  0  0  0  0  0  0  0  0  0  0
    8.8810   -2.7230    1.2920 C   0  0  0  0  0  3  0  0  0  0  0  0
    7.8530   -3.2150    2.1070 C   0  0  0  0  0  3  0  0  0  0  0  0
    7.3380   -4.4820    1.8070 C   0  0  0  0  0  0  0  0  0  0  0  0
    7.8280   -5.2410    0.7480 C   0  0  0  0  0  0  0  0  0  0  0  0
    8.8570   -4.7310   -0.0600 C   0  0  0  0  0  3  0  0  0  0  0  0
    7.1690   -6.4410    0.6610 N   0  0  0  0  0  0  0  0  0  0  0  0
    6.3000   -6.4590    1.6520 C   0  0  0  0  0  0  0  0  0  0  0  0
    6.3320   -5.2580    2.3480 N   0  0  0  0  0  0  0  0  0  0  0  0
    5.4110   -4.8600    3.4100 C   0  0  0  0  0  3  0  0  0  0  0  0
    6.0710   -3.9480    4.4550 C   0  0  0  0  0  2  0  0  0  0  0  0
    5.1010   -3.6110    5.5870 C   0  0  0  0  0  2  0  0  0  0  0  0
    3.7970   -3.0220    5.0580 C   0  0  0  0  0  2  0  0  0  0  0  0
    3.1380   -3.9400    4.0300 C   0  0  0  0  0  2  0  0  0  0  0  0
    4.0890   -4.2750    2.8820 C   0  0  0  0  0  2  0  0  0  0  0  0
   11.1380   -3.7010   -1.3910 O   0  0  0  0  0  0  0  0  0  0  0  0
   10.4970   -2.8820   -0.6580 C   0  0  0  0  0  0  0  0  0  0  0  0
   10.7050   -1.6310   -0.5850 O   0  0  0  0  0  1  0  0  0  0  0  0
    2.6250  -10.5850    2.7520 O   0  0  0  0  0  0  0  0  0  0  0  0
    2.0010  -11.1820    1.6030 C   0  0  0  0  0  2  0  0  0  0  0  0
    2.8360  -12.2910    0.9900 C   0  0  0  0  0  0  0  0  0  0  0  0
    3.3050  -12.1150   -0.3280 C   0  0  0  0  0  3  0  0  0  0  0  0
    4.0870  -13.0850   -0.9490 C   0  0  0  0  0  3  0  0  0  0  0  0
    4.4170  -14.2500   -0.2670 C   0  0  0  0  0  3  0  0  0  0  0  0
    3.9630  -14.4410    1.0390 C   0  0  0  0  0  3  0  0  0  0  0  0
    3.1710  -13.4740    1.6880 C   0  0  0  0  0  0  0  0  0  0  0  0
    2.7390  -13.7360    3.0670 C   0  0  0  0  0  0  0  0  0  0  0  0
    1.4590  -14.2430    3.3390 C   0  0  0  0  0  3  0  0  0  0  0  0
    1.0500  -14.4780    4.6550 C   0  0  0  0  0  3  0  0  0  0  0  0
    1.9190  -14.2160    5.7120 C   0  0  0  0  0  3  0  0  0  0  0  0
    3.1980  -13.7250    5.4580 C   0  0  0  0  0  3  0  0  0  0  0  0
    3.6060  -13.4930    4.1440 C   0  0  0  0  0  3  0  0  0  0  0  0
  1  7  1  0  0  0  0
  2  3  1  0  0  0  0
  2  1  2  0  0  0  0
  3  4  2  0  0  0  0
  4 26  1  0  0  0  0
  4  5  1  0  0  0  0
  5  6  1  0  0  0  0
  7  5  2  0  0  0  0
  8  9  1  0  0  0  0
  9 10  2  0  0  0  0
 11 10  1  0  0  0  0
 11 16  1  0  0  0  0
 12 11  2  0  0  0  0
 13  8  2  0  0  0  0
 13 12  1  0  0  0  0
 14 12  1  0  0  0  0
 14 15  2  0  0  0  0
 15  1  1  0  0  0  0
 15 16  1  0  0  0  0
 16 17  1  0  0  0  0
 17 18  1  0  0  0  0
 18 19  1  0  0  0  0
 20 19  1  0  0  0  0
 21 20  1  0  0  0  0
 22 17  1  0  0  0  0
 22 21  1  0  0  0  0
 23 24  2  0  0  0  0
 24 25  1  0  0  0  0
 24  8  1  0  0  0  0
 27 26  1  0  0  0  0
 28 27  1  0  0  0  0
 28 33  1  0  0  0  0
 29 28  2  0  0  0  0
 30 29  1  0  0  0  0
 30 31  2  0  0  0  0
 31 32  1  0  0  0  0
 32 33  2  0  0  0  0
 33 34  1  0  0  0  0
 34 35  2  0  0  0  0
 34 39  1  0  0  0  0
 35 36  1  0  0  0  0
 36 37  2  0  0  0  0
 38 37  1  0  0  0  0
 39 38  2  0  0  0  0
M  END
>  <minimizedAffinity>
-8.98202705

$$$$
