
 OpenBabel09122222393D

 39 44  0  0  0  0  0  0  0  0999 V2000
    6.2200   -6.7240    0.6880 C   0  0  0  0  0  0  0  0  0  0  0  0
    7.4620   -6.7120    1.3410 C   0  0  0  0  0  3  0  0  0  0  0  0
    8.5100   -5.9190    0.8680 C   0  0  0  0  0  3  0  0  0  0  0  0
    8.3170   -5.1230   -0.2600 C   0  0  0  0  0  0  0  0  0  0  0  0
    7.1120   -5.2010   -0.9590 C   0  0  0  0  0  0  0  0  0  0  0  0
    6.9300   -4.4780   -2.0740 F   0  0  0  0  0  0  0  0  0  0  0  0
    6.0670   -5.9940   -0.4950 C   0  0  0  0  0  3  0  0  0  0  0  0
    1.9480  -10.5420    2.4350 C   0  0  0  0  0  0  0  0  0  0  0  0
    1.6820   -9.5700    3.4130 C   0  0  0  0  0  3  0  0  0  0  0  0
    2.4180   -8.3820    3.5040 C   0  0  0  0  0  3  0  0  0  0  0  0
    3.4460   -8.1830    2.5740 C   0  0  0  0  0  0  0  0  0  0  0  0
    3.7300   -9.1190    1.5830 C   0  0  0  0  0  0  0  0  0  0  0  0
    2.9840  -10.3060    1.5090 C   0  0  0  0  0  3  0  0  0  0  0  0
    4.7700   -8.6960    0.7960 N   0  0  0  0  0  0  0  0  0  0  0  0
    5.1250   -7.5130    1.2540 C   0  0  0  0  0  0  0  0  0  0  0  0
    4.3760   -7.1810    2.3760 N   0  0  0  0  0  0  0  0  0  0  0  0
    4.5900   -6.0200    3.2350 C   0  0  0  0  0  3  0  0  0  0  0  0
    4.0940   -4.7130    2.5980 C   0  0  0  0  0  2  0  0  0  0  0  0
    4.3990   -3.5100    3.4910 C   0  0  0  0  0  2  0  0  0  0  0  0
    3.8520   -3.7010    4.9030 C   0  0  0  0  0  2  0  0  0  0  0  0
    4.3610   -4.9950    5.5360 C   0  0  0  0  0  2  0  0  0  0  0  0
    4.0510   -6.2100    4.6630 C   0  0  0  0  0  2  0  0  0  0  0  0
    1.6610  -12.8100    1.7710 O   0  0  0  0  0  0  0  0  0  0  0  0
    1.1380  -11.8230    2.3790 C   0  0  0  0  0  0  0  0  0  0  0  0
   -0.0040  -11.8150    2.9370 O   0  0  0  0  0  1  0  0  0  0  0  0
    9.2920   -4.2910   -0.7450 O   0  0  0  0  0  0  0  0  0  0  0  0
   10.0490   -3.6480    0.2950 C   0  0  0  0  0  2  0  0  0  0  0  0
   10.0220   -2.1340    0.1910 C   0  0  0  0  0  0  0  0  0  0  0  0
   10.4320   -1.5460   -1.0230 C   0  0  0  0  0  3  0  0  0  0  0  0
   10.4200   -0.1640   -1.1940 C   0  0  0  0  0  3  0  0  0  0  0  0
   10.0000    0.6580   -0.1560 C   0  0  0  0  0  3  0  0  0  0  0  0
    9.5890    0.0940    1.0530 C   0  0  0  0  0  3  0  0  0  0  0  0
    9.5920   -1.3010    1.2490 C   0  0  0  0  0  0  0  0  0  0  0  0
    9.1340   -1.8250    2.5420 C   0  0  0  0  0  0  0  0  0  0  0  0
    8.2140   -2.8830    2.6080 C   0  0  0  0  0  3  0  0  0  0  0  0
    7.7730   -3.3680    3.8420 C   0  0  0  0  0  3  0  0  0  0  0  0
    8.2520   -2.8070    5.0240 C   0  0  0  0  0  3  0  0  0  0  0  0
    9.1750   -1.7650    4.9760 C   0  0  0  0  0  3  0  0  0  0  0  0
    9.6170   -1.2820    3.7430 C   0  0  0  0  0  3  0  0  0  0  0  0
  1 15  1  0  0  0  0
  1  2  1  0  0  0  0
  3  2  2  0  0  0  0
  4  3  1  0  0  0  0
  5  7  1  0  0  0  0
  5  4  2  0  0  0  0
  6  5  1  0  0  0  0
  7  1  2  0  0  0  0
  8  9  1  0  0  0  0
  9 10  2  0  0  0  0
 11 10  1  0  0  0  0
 12 11  2  0  0  0  0
 13 12  1  0  0  0  0
 13  8  2  0  0  0  0
 14 15  2  0  0  0  0
 14 12  1  0  0  0  0
 15 16  1  0  0  0  0
 16 11  1  0  0  0  0
 16 17  1  0  0  0  0
 17 22  1  0  0  0  0
 18 17  1  0  0  0  0
 18 19  1  0  0  0  0
 19 20  1  0  0  0  0
 20 21  1  0  0  0  0
 22 21  1  0  0  0  0
 23 24  2  0  0  0  0
 24  8  1  0  0  0  0
 24 25  1  0  0  0  0
 26  4  1  0  0  0  0
 26 27  1  0  0  0  0
 28 27  1  0  0  0  0
 28 33  1  0  0  0  0
 29 28  2  0  0  0  0
 30 29  1  0  0  0  0
 30 31  2  0  0  0  0
 31 32  1  0  0  0  0
 32 33  2  0  0  0  0
 33 34  1  0  0  0  0
 34 35  2  0  0  0  0
 34 39  1  0  0  0  0
 35 36  1  0  0  0  0
 36 37  2  0  0  0  0
 38 37  1  0  0  0  0
 39 38  2  0  0  0  0
M  END
>  <minimizedAffinity>
-9.48525715

$$$$
