
 OpenBabel09122222393D

 39 44  0  0  0  0  0  0  0  0999 V2000
    6.0200   -6.8660    0.7690 C   0  0  0  0  0  0  0  0  0  0  0  0
    7.2950   -6.9110    1.3530 C   0  0  0  0  0  3  0  0  0  0  0  0
    8.3410   -6.1380    0.8440 C   0  0  0  0  0  3  0  0  0  0  0  0
    8.1130   -5.3050   -0.2500 C   0  0  0  0  0  0  0  0  0  0  0  0
    6.8700   -5.3260   -0.8830 C   0  0  0  0  0  0  0  0  0  0  0  0
    6.6510   -4.5660   -1.9670 F   0  0  0  0  0  0  0  0  0  0  0  0
    5.8270   -6.1000   -0.3840 C   0  0  0  0  0  3  0  0  0  0  0  0
    1.7460  -10.6120    2.6630 C   0  0  0  0  0  0  0  0  0  0  0  0
    1.5350   -9.6380    3.6530 C   0  0  0  0  0  3  0  0  0  0  0  0
    2.2940   -8.4640    3.7200 C   0  0  0  0  0  3  0  0  0  0  0  0
    3.2910   -8.2810    2.7530 C   0  0  0  0  0  0  0  0  0  0  0  0
    3.5210   -9.2190    1.7490 C   0  0  0  0  0  0  0  0  0  0  0  0
    2.7510  -10.3910    1.7010 C   0  0  0  0  0  3  0  0  0  0  0  0
    4.5390   -8.8130    0.9250 N   0  0  0  0  0  0  0  0  0  0  0  0
    4.9330   -7.6370    1.3740 C   0  0  0  0  0  0  0  0  0  0  0  0
    4.2310   -7.2950    2.5230 N   0  0  0  0  0  0  0  0  0  0  0  0
    4.4980   -6.1410    3.3760 C   0  0  0  0  0  3  0  0  0  0  0  0
    4.1670   -4.8070    2.6890 C   0  0  0  0  0  2  0  0  0  0  0  0
    4.5260   -3.6200    3.5810 C   0  0  0  0  0  2  0  0  0  0  0  0
    3.8760   -3.7290    4.9580 C   0  0  0  0  0  2  0  0  0  0  0  0
    4.2210   -5.0510    5.6420 C   0  0  0  0  0  2  0  0  0  0  0  0
    3.8550   -6.2500    4.7690 C   0  0  0  0  0  2  0  0  0  0  0  0
    1.3350  -12.8310    1.9080 O   0  0  0  0  0  0  0  0  0  0  0  0
    0.9110  -11.8770    2.6350 C   0  0  0  0  0  0  0  0  0  0  0  0
   -0.1520  -11.8900    3.3320 O   0  0  0  0  0  1  0  0  0  0  0  0
    9.0860   -4.4900   -0.7650 O   0  0  0  0  0  0  0  0  0  0  0  0
   10.0240   -4.0380    0.2270 C   0  0  0  0  0  2  0  0  0  0  0  0
    9.6360   -2.7040    0.8390 C   0  0  0  0  0  0  0  0  0  0  0  0
    8.8810   -2.7170    2.0290 C   0  0  0  0  0  3  0  0  0  0  0  0
    8.5000   -1.5310    2.6530 C   0  0  0  0  0  3  0  0  0  0  0  0
    8.8650   -0.3100    2.0990 C   0  0  0  0  0  3  0  0  0  0  0  0
    9.6140   -0.2780    0.9220 C   0  0  0  0  0  3  0  0  0  0  0  0
   10.0100   -1.4640    0.2730 C   0  0  0  0  0  0  0  0  0  0  0  0
   10.8080   -1.3550   -0.9550 C   0  0  0  0  0  0  0  0  0  0  0  0
   11.9520   -2.1460   -1.1470 C   0  0  0  0  0  3  0  0  0  0  0  0
   12.7120   -2.0280   -2.3120 C   0  0  0  0  0  3  0  0  0  0  0  0
   12.3360   -1.1230   -3.3030 C   0  0  0  0  0  3  0  0  0  0  0  0
   11.1960   -0.3400   -3.1340 C   0  0  0  0  0  3  0  0  0  0  0  0
   10.4350   -0.4600   -1.9700 C   0  0  0  0  0  3  0  0  0  0  0  0
  1  2  1  0  0  0  0
  1 15  1  0  0  0  0
  3  2  2  0  0  0  0
  4  3  1  0  0  0  0
  5  7  1  0  0  0  0
  5  4  2  0  0  0  0
  6  5  1  0  0  0  0
  7  1  2  0  0  0  0
  8  9  1  0  0  0  0
  9 10  2  0  0  0  0
 11 10  1  0  0  0  0
 12 11  2  0  0  0  0
 13 12  1  0  0  0  0
 13  8  2  0  0  0  0
 14 15  2  0  0  0  0
 14 12  1  0  0  0  0
 15 16  1  0  0  0  0
 16 11  1  0  0  0  0
 16 17  1  0  0  0  0
 17 22  1  0  0  0  0
 18 17  1  0  0  0  0
 18 19  1  0  0  0  0
 19 20  1  0  0  0  0
 20 21  1  0  0  0  0
 22 21  1  0  0  0  0
 23 24  2  0  0  0  0
 24  8  1  0  0  0  0
 24 25  1  0  0  0  0
 26  4  1  0  0  0  0
 26 27  1  0  0  0  0
 27 28  1  0  0  0  0
 28 29  1  0  0  0  0
 29 30  2  0  0  0  0
 31 30  1  0  0  0  0
 32 31  2  0  0  0  0
 33 28  2  0  0  0  0
 33 32  1  0  0  0  0
 34 33  1  0  0  0  0
 35 34  1  0  0  0  0
 36 35  2  0  0  0  0
 37 38  2  0  0  0  0
 37 36  1  0  0  0  0
 38 39  1  0  0  0  0
 39 34  2  0  0  0  0
M  END
>  <minimizedAffinity>
-9.477705

$$$$
