
 OpenBabel09122222393D

 39 44  0  0  0  0  0  0  0  0999 V2000
    5.5430   -7.2750    1.4100 C   0  0  0  0  0  0  0  0  0  0  0  0
    4.4480   -7.3170    0.5340 C   0  0  0  0  0  3  0  0  0  0  0  0
    3.4790   -8.3170    0.6500 C   0  0  0  0  0  3  0  0  0  0  0  0
    3.5960   -9.2770    1.6540 C   0  0  0  0  0  0  0  0  0  0  0  0
    4.7290   -9.2860    2.4680 C   0  0  0  0  0  0  0  0  0  0  0  0
    4.8790  -10.2330    3.4060 F   0  0  0  0  0  0  0  0  0  0  0  0
    5.7000   -8.2970    2.3520 C   0  0  0  0  0  3  0  0  0  0  0  0
    9.7130   -3.1350    0.2500 C   0  0  0  0  0  0  0  0  0  0  0  0
    9.2110   -2.5140    1.4050 C   0  0  0  0  0  3  0  0  0  0  0  0
    8.1540   -3.0590    2.1460 C   0  0  0  0  0  3  0  0  0  0  0  0
    7.6010   -4.2640    1.6950 C   0  0  0  0  0  0  0  0  0  0  0  0
    8.0820   -4.9140    0.5620 C   0  0  0  0  0  0  0  0  0  0  0  0
    9.1400   -4.3520   -0.1700 C   0  0  0  0  0  3  0  0  0  0  0  0
    7.3840   -6.0720    0.3300 N   0  0  0  0  0  0  0  0  0  0  0  0
    6.5000   -6.1730    1.3020 C   0  0  0  0  0  0  0  0  0  0  0  0
    6.5610   -5.0610    2.1330 N   0  0  0  0  0  0  0  0  0  0  0  0
    5.6370   -4.7560    3.2220 C   0  0  0  0  0  3  0  0  0  0  0  0
    6.2590   -3.8380    4.2850 C   0  0  0  0  0  2  0  0  0  0  0  0
    5.2930   -3.5980    5.4440 C   0  0  0  0  0  2  0  0  0  0  0  0
    3.9440   -3.0750    4.9570 C   0  0  0  0  0  2  0  0  0  0  0  0
    3.3240   -4.0000    3.9110 C   0  0  0  0  0  2  0  0  0  0  0  0
    4.2730   -4.2380    2.7370 C   0  0  0  0  0  2  0  0  0  0  0  0
   12.0300   -2.7220   -0.1090 O   0  0  0  0  0  1  0  0  0  0  0  0
   10.8500   -2.5050   -0.5320 C   0  0  0  0  0  0  0  0  0  0  0  0
   10.5420   -1.8040   -1.5460 O   0  0  0  0  0  0  0  0  0  0  0  0
    2.6540  -10.2530    1.8460 O   0  0  0  0  0  0  0  0  0  0  0  0
    1.6300   -9.8710    2.7800 C   0  0  0  0  0  2  0  0  0  0  0  0
    1.1930  -11.0170    3.6750 C   0  0  0  0  0  0  0  0  0  0  0  0
    1.8680  -12.2480    3.5500 C   0  0  0  0  0  3  0  0  0  0  0  0
    1.5290  -13.3390    4.3480 C   0  0  0  0  0  3  0  0  0  0  0  0
    0.5100  -13.2210    5.2840 C   0  0  0  0  0  3  0  0  0  0  0  0
   -0.1690  -12.0090    5.4230 C   0  0  0  0  0  3  0  0  0  0  0  0
    0.1570  -10.8920    4.6280 C   0  0  0  0  0  0  0  0  0  0  0  0
   -0.5900   -9.6450    4.8370 C   0  0  0  0  0  0  0  0  0  0  0  0
   -0.0030   -8.5540    5.4980 C   0  0  0  0  0  3  0  0  0  0  0  0
   -0.7240   -7.3750    5.7040 C   0  0  0  0  0  3  0  0  0  0  0  0
   -2.0360   -7.2700    5.2480 C   0  0  0  0  0  3  0  0  0  0  0  0
   -2.6290   -8.3390    4.5790 C   0  0  0  0  0  3  0  0  0  0  0  0
   -1.9080   -9.5160    4.3710 C   0  0  0  0  0  3  0  0  0  0  0  0
  1  7  1  0  0  0  0
  2  3  1  0  0  0  0
  2  1  2  0  0  0  0
  3  4  2  0  0  0  0
  4 26  1  0  0  0  0
  4  5  1  0  0  0  0
  5  6  1  0  0  0  0
  7  5  2  0  0  0  0
  8  9  1  0  0  0  0
  9 10  2  0  0  0  0
 11 16  1  0  0  0  0
 11 10  1  0  0  0  0
 12 11  2  0  0  0  0
 13  8  2  0  0  0  0
 13 12  1  0  0  0  0
 14 12  1  0  0  0  0
 14 15  2  0  0  0  0
 15  1  1  0  0  0  0
 15 16  1  0  0  0  0
 16 17  1  0  0  0  0
 17 18  1  0  0  0  0
 18 19  1  0  0  0  0
 20 19  1  0  0  0  0
 21 20  1  0  0  0  0
 22 17  1  0  0  0  0
 22 21  1  0  0  0  0
 24 23  1  0  0  0  0
 24  8  1  0  0  0  0
 25 24  2  0  0  0  0
 26 27  1  0  0  0  0
 27 28  1  0  0  0  0
 28 33  1  0  0  0  0
 29 28  2  0  0  0  0
 29 30  1  0  0  0  0
 30 31  2  0  0  0  0
 31 32  1  0  0  0  0
 33 34  1  0  0  0  0
 33 32  2  0  0  0  0
 34 35  1  0  0  0  0
 35 36  2  0  0  0  0
 37 36  1  0  0  0  0
 38 37  2  0  0  0  0
 39 38  1  0  0  0  0
 39 34  2  0  0  0  0
M  END
>  <minimizedAffinity>
-8.53075218

$$$$
