
 OpenBabel09122222393D

 27 29  0  0  0  0  0  0  0  0999 V2000
   -2.2610    4.8150   -7.7340 C   0  0  0  0  0  0  0  0  0  0  0  0
   -2.6490    5.9180   -8.2770 N   0  0  0  0  0  0  0  0  0  0  0  0
   -1.6640    6.8090   -8.6520 C   0  0  0  0  0  0  0  0  0  0  0  0
   -0.3460    6.5900   -8.4820 C   0  0  0  0  0  0  0  0  0  0  0  0
    0.0570    5.3230   -7.8360 C   0  0  0  0  0  0  0  0  0  0  0  0
    1.2280    5.0320   -7.6220 O   0  0  0  0  0  0  0  0  0  0  0  0
   -0.9660    4.4860   -7.5050 N   0  0  0  0  0  0  0  0  0  0  0  0
   -0.7430    3.6110   -7.0520 H   0  0  0  0  0  0  0  0  0  0  0  0
   -2.1470    8.0350   -9.3220 C   0  0  0  0  0  0  0  0  0  0  0  0
   -1.7060    9.2920   -8.8810 C   0  0  0  0  0  3  0  0  0  0  0  0
   -2.1590   10.4540   -9.5120 C   0  0  0  0  0  3  0  0  0  0  0  0
   -3.0420   10.3570  -10.5830 C   0  0  0  0  0  0  0  0  0  0  0  0
   -3.4710   11.4740  -11.1840 F   0  0  0  0  0  0  0  0  0  0  0  0
   -3.4820    9.1230  -11.0430 C   0  0  0  0  0  3  0  0  0  0  0  0
   -3.0270    7.9710  -10.4110 C   0  0  0  0  0  0  0  0  0  0  0  0
   -3.4470    6.7790  -10.8620 F   0  0  0  0  0  0  0  0  0  0  0  0
    0.7440    7.5210   -8.9890 C   0  0  0  0  0  2  0  0  0  0  0  0
    1.6480    8.2920   -9.4100 N   0  0  0  0  0  1  0  0  0  0  0  0
   -3.3840    3.5970   -7.2390 S   0  0  0  0  0  0  0  0  0  0  0  0
   -2.3250    2.1400   -7.4800 C   0  0  0  0  0  2  0  0  0  0  0  0
   -1.6290    0.9920   -2.6170 C   0  0  0  0  0  1  0  0  0  0  0  0
   -1.0660    1.3690   -3.9560 C   0  0  0  0  0  0  0  0  0  0  0  0
    0.3020    1.6250   -4.1010 C   0  0  0  0  0  3  0  0  0  0  0  0
    0.8210    2.0080   -5.3370 C   0  0  0  0  0  3  0  0  0  0  0  0
   -0.0240    2.1540   -6.4350 C   0  0  0  0  0  3  0  0  0  0  0  0
   -1.4010    1.9200   -6.3080 C   0  0  0  0  0  0  0  0  0  0  0  0
   -1.9120    1.5280   -5.0610 C   0  0  0  0  0  3  0  0  0  0  0  0
  1  7  1  0  0  0  0
  1 19  1  0  0  0  0
  2  1  2  0  0  0  0
  3  4  2  0  0  0  0
  3  2  1  0  0  0  0
  4  5  1  0  0  0  0
  5  6  2  0  0  0  0
  5  7  1  0  0  0  0
  7  8  1  0  0  0  0
  9 10  1  0  0  0  0
  9  3  1  0  0  0  0
 11 10  2  0  0  0  0
 12 11  1  0  0  0  0
 13 12  1  0  0  0  0
 14 12  2  0  0  0  0
 14 15  1  0  0  0  0
 15  9  2  0  0  0  0
 16 15  1  0  0  0  0
 17  4  1  0  0  0  0
 18 17  1  0  0  0  0
 20 19  1  0  0  0  0
 20 26  1  0  0  0  0
 22 21  1  0  0  0  0
 23 22  1  0  0  0  0
 24 23  2  0  0  0  0
 25 26  2  0  0  0  0
 25 24  1  0  0  0  0
 26 27  1  0  0  0  0
 27 22  2  0  0  0  0
M  END
>  <minimizedAffinity>
47.714962

$$$$
