
 OpenBabel09122219273D

 27 29  0  0  0  0  0  0  0  0999 V2000
   -2.4890    4.9590   -7.6400 C   0  0  0  0  0  0  0  0  0  0  0  0
   -2.8300    6.0640   -8.2110 N   0  0  0  0  0  0  0  0  0  0  0  0
   -1.8070    6.8790   -8.6520 C   0  0  0  0  0  0  0  0  0  0  0  0
   -0.4990    6.5870   -8.5190 C   0  0  0  0  0  0  0  0  0  0  0  0
   -0.1500    5.3210   -7.8400 C   0  0  0  0  0  0  0  0  0  0  0  0
    1.0080    4.9660   -7.6560 O   0  0  0  0  0  0  0  0  0  0  0  0
   -1.2090    4.5610   -7.4430 N   0  0  0  0  0  0  0  0  0  0  0  0
   -1.0230    3.6900   -6.9660 H   0  0  0  0  0  0  0  0  0  0  0  0
   -2.2400    8.1080   -9.3500 C   0  0  0  0  0  0  0  0  0  0  0  0
   -1.7810    9.3600   -8.9120 C   0  0  0  0  0  3  0  0  0  0  0  0
   -2.1870   10.5240   -9.5700 C   0  0  0  0  0  3  0  0  0  0  0  0
   -3.0410   10.4360  -10.6660 C   0  0  0  0  0  0  0  0  0  0  0  0
   -3.4230   11.5550  -11.2920 F   0  0  0  0  0  0  0  0  0  0  0  0
   -3.4970    9.2070  -11.1240 C   0  0  0  0  0  3  0  0  0  0  0  0
   -3.0890    8.0520  -10.4650 C   0  0  0  0  0  0  0  0  0  0  0  0
   -3.5250    6.8650  -10.9140 F   0  0  0  0  0  0  0  0  0  0  0  0
    0.6250    7.4300   -9.0980 C   0  0  0  0  0  2  0  0  0  0  0  0
    1.5580    8.1300   -9.5780 N   0  0  0  0  0  1  0  0  0  0  0  0
   -3.6650    3.8310   -7.0610 S   0  0  0  0  0  0  0  0  0  0  0  0
   -2.7380    2.2980   -7.3660 C   0  0  0  0  0  2  0  0  0  0  0  0
    2.1100    2.1340   -5.9780 C   0  0  0  0  0  1  0  0  0  0  0  0
    0.6570    1.9770   -5.6410 C   0  0  0  0  0  0  0  0  0  0  0  0
    0.2710    1.5050   -4.3810 C   0  0  0  0  0  3  0  0  0  0  0  0
   -1.0780    1.3270   -4.0770 C   0  0  0  0  0  3  0  0  0  0  0  0
   -2.0530    1.6030   -5.0340 C   0  0  0  0  0  3  0  0  0  0  0  0
   -1.6880    2.0600   -6.3090 C   0  0  0  0  0  0  0  0  0  0  0  0
   -0.3270    2.2430   -6.6020 C   0  0  0  0  0  3  0  0  0  0  0  0
  1  7  1  0  0  0  0
  1 19  1  0  0  0  0
  2  1  2  0  0  0  0
  3  4  2  0  0  0  0
  3  2  1  0  0  0  0
  4  5  1  0  0  0  0
  5  6  2  0  0  0  0
  5  7  1  0  0  0  0
  7  8  1  0  0  0  0
  9 10  1  0  0  0  0
  9  3  1  0  0  0  0
 11 10  2  0  0  0  0
 12 11  1  0  0  0  0
 13 12  1  0  0  0  0
 14 12  2  0  0  0  0
 14 15  1  0  0  0  0
 15  9  2  0  0  0  0
 16 15  1  0  0  0  0
 17  4  1  0  0  0  0
 18 17  1  0  0  0  0
 20 19  1  0  0  0  0
 20 26  1  0  0  0  0
 21 22  1  0  0  0  0
 22 23  1  0  0  0  0
 23 24  2  0  0  0  0
 25 24  1  0  0  0  0
 26 25  2  0  0  0  0
 27 26  1  0  0  0  0
 27 22  2  0  0  0  0
M  END
>  <minimizedAffinity>
47.1979141

$$$$

 OpenBabel09122219273D

 27 29  0  0  0  0  0  0  0  0999 V2000
   -2.2610    4.8150   -7.7340 C   0  0  0  0  0  0  0  0  0  0  0  0
   -2.6490    5.9180   -8.2770 N   0  0  0  0  0  0  0  0  0  0  0  0
   -1.6640    6.8090   -8.6520 C   0  0  0  0  0  0  0  0  0  0  0  0
   -0.3460    6.5900   -8.4820 C   0  0  0  0  0  0  0  0  0  0  0  0
    0.0570    5.3230   -7.8360 C   0  0  0  0  0  0  0  0  0  0  0  0
    1.2280    5.0320   -7.6220 O   0  0  0  0  0  0  0  0  0  0  0  0
   -0.9660    4.4860   -7.5050 N   0  0  0  0  0  0  0  0  0  0  0  0
   -0.7430    3.6110   -7.0520 H   0  0  0  0  0  0  0  0  0  0  0  0
   -2.1470    8.0350   -9.3220 C   0  0  0  0  0  0  0  0  0  0  0  0
   -1.7060    9.2920   -8.8810 C   0  0  0  0  0  3  0  0  0  0  0  0
   -2.1590   10.4540   -9.5120 C   0  0  0  0  0  3  0  0  0  0  0  0
   -3.0420   10.3570  -10.5830 C   0  0  0  0  0  0  0  0  0  0  0  0
   -3.4710   11.4740  -11.1840 F   0  0  0  0  0  0  0  0  0  0  0  0
   -3.4820    9.1230  -11.0430 C   0  0  0  0  0  3  0  0  0  0  0  0
   -3.0270    7.9710  -10.4110 C   0  0  0  0  0  0  0  0  0  0  0  0
   -3.4470    6.7790  -10.8620 F   0  0  0  0  0  0  0  0  0  0  0  0
    0.7440    7.5210   -8.9890 C   0  0  0  0  0  2  0  0  0  0  0  0
    1.6480    8.2920   -9.4100 N   0  0  0  0  0  1  0  0  0  0  0  0
   -3.3840    3.5970   -7.2390 S   0  0  0  0  0  0  0  0  0  0  0  0
   -2.3250    2.1400   -7.4800 C   0  0  0  0  0  2  0  0  0  0  0  0
   -1.6290    0.9920   -2.6170 C   0  0  0  0  0  1  0  0  0  0  0  0
   -1.0660    1.3690   -3.9560 C   0  0  0  0  0  0  0  0  0  0  0  0
    0.3020    1.6250   -4.1010 C   0  0  0  0  0  3  0  0  0  0  0  0
    0.8210    2.0080   -5.3370 C   0  0  0  0  0  3  0  0  0  0  0  0
   -0.0240    2.1540   -6.4350 C   0  0  0  0  0  3  0  0  0  0  0  0
   -1.4010    1.9200   -6.3080 C   0  0  0  0  0  0  0  0  0  0  0  0
   -1.9120    1.5280   -5.0610 C   0  0  0  0  0  3  0  0  0  0  0  0
  1  7  1  0  0  0  0
  1 19  1  0  0  0  0
  2  1  2  0  0  0  0
  3  4  2  0  0  0  0
  3  2  1  0  0  0  0
  4  5  1  0  0  0  0
  5  6  2  0  0  0  0
  5  7  1  0  0  0  0
  7  8  1  0  0  0  0
  9 10  1  0  0  0  0
  9  3  1  0  0  0  0
 11 10  2  0  0  0  0
 12 11  1  0  0  0  0
 13 12  1  0  0  0  0
 14 12  2  0  0  0  0
 14 15  1  0  0  0  0
 15  9  2  0  0  0  0
 16 15  1  0  0  0  0
 17  4  1  0  0  0  0
 18 17  1  0  0  0  0
 20 19  1  0  0  0  0
 20 26  1  0  0  0  0
 22 21  1  0  0  0  0
 23 22  1  0  0  0  0
 24 23  2  0  0  0  0
 25 26  2  0  0  0  0
 25 24  1  0  0  0  0
 26 27  1  0  0  0  0
 27 22  2  0  0  0  0
M  END
>  <minimizedAffinity>
47.714962

$$$$

 OpenBabel09122219273D

 27 29  0  0  0  0  0  0  0  0999 V2000
   -2.5120    4.8780   -7.6860 C   0  0  0  0  0  0  0  0  0  0  0  0
   -2.8620    5.9590   -8.2950 N   0  0  0  0  0  0  0  0  0  0  0  0
   -1.8460    6.7770   -8.7470 C   0  0  0  0  0  0  0  0  0  0  0  0
   -0.5360    6.5100   -8.5880 C   0  0  0  0  0  0  0  0  0  0  0  0
   -0.1760    5.2700   -7.8660 C   0  0  0  0  0  0  0  0  0  0  0  0
    0.9840    4.9400   -7.6560 O   0  0  0  0  0  0  0  0  0  0  0  0
   -1.2280    4.5060   -7.4600 N   0  0  0  0  0  0  0  0  0  0  0  0
   -1.0350    3.6530   -6.9540 H   0  0  0  0  0  0  0  0  0  0  0  0
   -2.2890    7.9770   -9.4880 C   0  0  0  0  0  0  0  0  0  0  0  0
   -3.0730    7.8360  -10.6440 C   0  0  0  0  0  3  0  0  0  0  0  0
   -3.4950    8.9680  -11.3470 C   0  0  0  0  0  3  0  0  0  0  0  0
   -3.1410   10.2340  -10.8910 C   0  0  0  0  0  0  0  0  0  0  0  0
   -3.5500   11.3140  -11.5690 F   0  0  0  0  0  0  0  0  0  0  0  0
   -2.3760   10.3970   -9.7440 C   0  0  0  0  0  3  0  0  0  0  0  0
   -1.9600    9.2670   -9.0490 C   0  0  0  0  0  0  0  0  0  0  0  0
   -1.2280    9.4270   -7.9350 F   0  0  0  0  0  0  0  0  0  0  0  0
    0.5830    7.3530   -9.1770 C   0  0  0  0  0  2  0  0  0  0  0  0
    1.5110    8.0530   -9.6660 N   0  0  0  0  0  1  0  0  0  0  0  0
   -3.6780    3.7490   -7.0890 S   0  0  0  0  0  0  0  0  0  0  0  0
   -2.7350    2.2190   -7.3630 C   0  0  0  0  0  2  0  0  0  0  0  0
    2.1170    2.1630   -5.9820 C   0  0  0  0  0  1  0  0  0  0  0  0
    0.6670    1.9850   -5.6400 C   0  0  0  0  0  0  0  0  0  0  0  0
    0.2920    1.5240   -4.3730 C   0  0  0  0  0  3  0  0  0  0  0  0
   -1.0530    1.3260   -4.0640 C   0  0  0  0  0  3  0  0  0  0  0  0
   -2.0340    1.5710   -5.0230 C   0  0  0  0  0  3  0  0  0  0  0  0
   -1.6800    2.0160   -6.3050 C   0  0  0  0  0  0  0  0  0  0  0  0
   -0.3230    2.2190   -6.6030 C   0  0  0  0  0  3  0  0  0  0  0  0
  1  7  1  0  0  0  0
  1 19  1  0  0  0  0
  2  1  2  0  0  0  0
  3  4  2  0  0  0  0
  3  2  1  0  0  0  0
  4  5  1  0  0  0  0
  5  6  2  0  0  0  0
  5  7  1  0  0  0  0
  7  8  1  0  0  0  0
  9 15  1  0  0  0  0
  9  3  1  0  0  0  0
 10  9  2  0  0  0  0
 11 12  2  0  0  0  0
 11 10  1  0  0  0  0
 12 14  1  0  0  0  0
 13 12  1  0  0  0  0
 14 15  2  0  0  0  0
 15 16  1  0  0  0  0
 17  4  1  0  0  0  0
 18 17  1  0  0  0  0
 20 19  1  0  0  0  0
 20 26  1  0  0  0  0
 21 22  1  0  0  0  0
 22 23  1  0  0  0  0
 23 24  2  0  0  0  0
 25 24  1  0  0  0  0
 26 25  2  0  0  0  0
 27 26  1  0  0  0  0
 27 22  2  0  0  0  0
M  END
>  <minimizedAffinity>
48.1302109

$$$$

 OpenBabel09122219273D

 27 29  0  0  0  0  0  0  0  0999 V2000
    1.0930    6.6870   -8.9500 C   0  0  0  0  0  0  0  0  0  0  0  0
    0.3040    7.6030   -9.3990 N   0  0  0  0  0  0  0  0  0  0  0  0
   -1.0390    7.4650   -9.1100 C   0  0  0  0  0  0  0  0  0  0  0  0
   -1.5560    6.4440   -8.4000 C   0  0  0  0  0  0  0  0  0  0  0  0
   -0.6210    5.4040   -7.9220 C   0  0  0  0  0  0  0  0  0  0  0  0
   -0.9890    4.4270   -7.2800 O   0  0  0  0  0  0  0  0  0  0  0  0
    0.6890    5.6110   -8.2310 N   0  0  0  0  0  0  0  0  0  0  0  0
    1.3670    4.9230   -7.9350 H   0  0  0  0  0  0  0  0  0  0  0  0
   -1.9010    8.5640   -9.5930 C   0  0  0  0  0  0  0  0  0  0  0  0
   -1.6490    9.8830   -9.1840 C   0  0  0  0  0  3  0  0  0  0  0  0
   -2.4600   10.9250   -9.6400 C   0  0  0  0  0  3  0  0  0  0  0  0
   -3.5140   10.6500  -10.5060 C   0  0  0  0  0  0  0  0  0  0  0  0
   -4.2860   11.6540  -10.9400 F   0  0  0  0  0  0  0  0  0  0  0  0
   -3.7740    9.3550  -10.9330 C   0  0  0  0  0  3  0  0  0  0  0  0
   -2.9620    8.3230  -10.4770 C   0  0  0  0  0  0  0  0  0  0  0  0
   -3.2100    7.0730  -10.8980 F   0  0  0  0  0  0  0  0  0  0  0  0
   -3.0170    6.3460   -7.9910 C   0  0  0  0  0  2  0  0  0  0  0  0
   -4.2280    6.2630   -7.6510 N   0  0  0  0  0  1  0  0  0  0  0  0
    2.8010    6.7440   -9.2150 S   0  0  0  0  0  0  0  0  0  0  0  0
    3.0110    5.1060   -9.9730 C   0  0  0  0  0  2  0  0  0  0  0  0
    1.9360    3.5260   -5.3040 C   0  0  0  0  0  1  0  0  0  0  0  0
    2.4480    3.2430   -6.6850 C   0  0  0  0  0  0  0  0  0  0  0  0
    2.9860    1.9890   -6.9950 C   0  0  0  0  0  3  0  0  0  0  0  0
    3.4940    1.7340   -8.2690 C   0  0  0  0  0  3  0  0  0  0  0  0
    3.4820    2.7340   -9.2380 C   0  0  0  0  0  3  0  0  0  0  0  0
    2.9650    4.0040   -8.9440 C   0  0  0  0  0  0  0  0  0  0  0  0
    2.4490    4.2470   -7.6610 C   0  0  0  0  0  3  0  0  0  0  0  0
  1  7  1  0  0  0  0
  2  3  1  0  0  0  0
  2  1  2  0  0  0  0
  3  4  2  0  0  0  0
  4 17  1  0  0  0  0
  4  5  1  0  0  0  0
  5  6  2  0  0  0  0
  7  8  1  0  0  0  0
  7  5  1  0  0  0  0
  9 10  1  0  0  0  0
  9  3  1  0  0  0  0
 11 10  2  0  0  0  0
 12 11  1  0  0  0  0
 13 12  1  0  0  0  0
 14 12  2  0  0  0  0
 14 15  1  0  0  0  0
 15  9  2  0  0  0  0
 16 15  1  0  0  0  0
 17 18  1  0  0  0  0
 19  1  1  0  0  0  0
 20 19  1  0  0  0  0
 20 26  1  0  0  0  0
 22 21  1  0  0  0  0
 23 22  1  0  0  0  0
 24 23  2  0  0  0  0
 25 26  2  0  0  0  0
 25 24  1  0  0  0  0
 26 27  1  0  0  0  0
 27 22  2  0  0  0  0
M  END
>  <minimizedAffinity>
48.9384041

$$$$

 OpenBabel09122219273D

 27 29  0  0  0  0  0  0  0  0999 V2000
    1.1250    5.3710   -7.6700 C   0  0  0  0  0  0  0  0  0  0  0  0
    0.5210    4.6240   -6.8100 N   0  0  0  0  0  0  0  0  0  0  0  0
    1.0990    3.4010   -6.5330 C   0  0  0  0  0  0  0  0  0  0  0  0
    2.2360    2.9570   -7.1030 C   0  0  0  0  0  0  0  0  0  0  0  0
    2.8850    3.8360   -8.0990 C   0  0  0  0  0  0  0  0  0  0  0  0
    3.9140    3.5230   -8.6860 O   0  0  0  0  0  0  0  0  0  0  0  0
    2.2680    5.0310   -8.3130 N   0  0  0  0  0  0  0  0  0  0  0  0
    2.6680    5.6630   -8.9920 H   0  0  0  0  0  0  0  0  0  0  0  0
    0.4080    2.5990   -5.5010 C   0  0  0  0  0  0  0  0  0  0  0  0
    0.8670    2.6190   -4.1750 C   0  0  0  0  0  3  0  0  0  0  0  0
    0.2160    1.8630   -3.1960 C   0  0  0  0  0  3  0  0  0  0  0  0
   -0.8940    1.0990   -3.5410 C   0  0  0  0  0  0  0  0  0  0  0  0
   -1.5140    0.3790   -2.5980 F   0  0  0  0  0  0  0  0  0  0  0  0
   -1.3740    1.0740   -4.8440 C   0  0  0  0  0  3  0  0  0  0  0  0
   -0.7210    1.8280   -5.8130 C   0  0  0  0  0  0  0  0  0  0  0  0
   -1.1910    1.8090   -7.0700 F   0  0  0  0  0  0  0  0  0  0  0  0
    2.9300    1.6600   -6.7220 C   0  0  0  0  0  2  0  0  0  0  0  0
    3.5060    0.5840   -6.4060 N   0  0  0  0  0  1  0  0  0  0  0  0
    0.5280    6.9380   -8.0940 S   0  0  0  0  0  0  0  0  0  0  0  0
   -1.2480    6.5520   -8.1140 C   0  0  0  0  0  2  0  0  0  0  0  0
   -2.3360   11.1350   -9.9220 C   0  0  0  0  0  1  0  0  0  0  0  0
   -2.5280    9.6470   -9.9530 C   0  0  0  0  0  0  0  0  0  0  0  0
   -3.4830    9.0760  -10.8020 C   0  0  0  0  0  3  0  0  0  0  0  0
   -3.6860    7.6960  -10.8080 C   0  0  0  0  0  3  0  0  0  0  0  0
   -2.9490    6.8780   -9.9550 C   0  0  0  0  0  3  0  0  0  0  0  0
   -2.0000    7.4300   -9.0830 C   0  0  0  0  0  0  0  0  0  0  0  0
   -1.7980    8.8190   -9.0910 C   0  0  0  0  0  3  0  0  0  0  0  0
  1  2  2  0  0  0  0
  2  3  1  0  0  0  0
  3  9  1  0  0  0  0
  4 17  1  0  0  0  0
  4  3  2  0  0  0  0
  5  4  1  0  0  0  0
  6  5  2  0  0  0  0
  7  5  1  0  0  0  0
  7  1  1  0  0  0  0
  8  7  1  0  0  0  0
  9 10  1  0  0  0  0
 10 11  2  0  0  0  0
 12 11  1  0  0  0  0
 12 13  1  0  0  0  0
 14 12  2  0  0  0  0
 15  9  2  0  0  0  0
 15 14  1  0  0  0  0
 16 15  1  0  0  0  0
 17 18  1  0  0  0  0
 19  1  1  0  0  0  0
 20 19  1  0  0  0  0
 22 21  1  0  0  0  0
 22 27  1  0  0  0  0
 23 22  2  0  0  0  0
 24 23  1  0  0  0  0
 24 25  2  0  0  0  0
 25 26  1  0  0  0  0
 26 20  1  0  0  0  0
 27 26  2  0  0  0  0
M  END
>  <minimizedAffinity>
49.7758026

$$$$
