
 OpenBabel09122222393D

 27 29  0  0  0  0  0  0  0  0999 V2000
    1.0930    6.6870   -8.9500 C   0  0  0  0  0  0  0  0  0  0  0  0
    0.3040    7.6030   -9.3990 N   0  0  0  0  0  0  0  0  0  0  0  0
   -1.0390    7.4650   -9.1100 C   0  0  0  0  0  0  0  0  0  0  0  0
   -1.5560    6.4440   -8.4000 C   0  0  0  0  0  0  0  0  0  0  0  0
   -0.6210    5.4040   -7.9220 C   0  0  0  0  0  0  0  0  0  0  0  0
   -0.9890    4.4270   -7.2800 O   0  0  0  0  0  0  0  0  0  0  0  0
    0.6890    5.6110   -8.2310 N   0  0  0  0  0  0  0  0  0  0  0  0
    1.3670    4.9230   -7.9350 H   0  0  0  0  0  0  0  0  0  0  0  0
   -1.9010    8.5640   -9.5930 C   0  0  0  0  0  0  0  0  0  0  0  0
   -1.6490    9.8830   -9.1840 C   0  0  0  0  0  3  0  0  0  0  0  0
   -2.4600   10.9250   -9.6400 C   0  0  0  0  0  3  0  0  0  0  0  0
   -3.5140   10.6500  -10.5060 C   0  0  0  0  0  0  0  0  0  0  0  0
   -4.2860   11.6540  -10.9400 F   0  0  0  0  0  0  0  0  0  0  0  0
   -3.7740    9.3550  -10.9330 C   0  0  0  0  0  3  0  0  0  0  0  0
   -2.9620    8.3230  -10.4770 C   0  0  0  0  0  0  0  0  0  0  0  0
   -3.2100    7.0730  -10.8980 F   0  0  0  0  0  0  0  0  0  0  0  0
   -3.0170    6.3460   -7.9910 C   0  0  0  0  0  2  0  0  0  0  0  0
   -4.2280    6.2630   -7.6510 N   0  0  0  0  0  1  0  0  0  0  0  0
    2.8010    6.7440   -9.2150 S   0  0  0  0  0  0  0  0  0  0  0  0
    3.0110    5.1060   -9.9730 C   0  0  0  0  0  2  0  0  0  0  0  0
    1.9360    3.5260   -5.3040 C   0  0  0  0  0  1  0  0  0  0  0  0
    2.4480    3.2430   -6.6850 C   0  0  0  0  0  0  0  0  0  0  0  0
    2.9860    1.9890   -6.9950 C   0  0  0  0  0  3  0  0  0  0  0  0
    3.4940    1.7340   -8.2690 C   0  0  0  0  0  3  0  0  0  0  0  0
    3.4820    2.7340   -9.2380 C   0  0  0  0  0  3  0  0  0  0  0  0
    2.9650    4.0040   -8.9440 C   0  0  0  0  0  0  0  0  0  0  0  0
    2.4490    4.2470   -7.6610 C   0  0  0  0  0  3  0  0  0  0  0  0
  1  7  1  0  0  0  0
  2  3  1  0  0  0  0
  2  1  2  0  0  0  0
  3  4  2  0  0  0  0
  4 17  1  0  0  0  0
  4  5  1  0  0  0  0
  5  6  2  0  0  0  0
  7  8  1  0  0  0  0
  7  5  1  0  0  0  0
  9 10  1  0  0  0  0
  9  3  1  0  0  0  0
 11 10  2  0  0  0  0
 12 11  1  0  0  0  0
 13 12  1  0  0  0  0
 14 12  2  0  0  0  0
 14 15  1  0  0  0  0
 15  9  2  0  0  0  0
 16 15  1  0  0  0  0
 17 18  1  0  0  0  0
 19  1  1  0  0  0  0
 20 19  1  0  0  0  0
 20 26  1  0  0  0  0
 22 21  1  0  0  0  0
 23 22  1  0  0  0  0
 24 23  2  0  0  0  0
 25 26  2  0  0  0  0
 25 24  1  0  0  0  0
 26 27  1  0  0  0  0
 27 22  2  0  0  0  0
M  END
>  <minimizedAffinity>
48.9384041

$$$$
