
 OpenBabel09122219563D

 32 34  0  0  0  0  0  0  0  0999 V2000
    2.4440   -7.0900    5.7770 C   0  0  0  0  0  0  0  0  0  0  0  0
    3.0870   -6.2480    6.6590 N   0  0  0  0  0  0  0  0  0  0  0  0
    4.2810   -5.8620    6.3570 C   0  0  0  0  0  0  0  0  0  0  0  0
    4.9230   -6.2420    5.2230 N   0  0  0  0  0  0  0  0  0  0  0  0
    4.3790   -7.1380    4.3500 C   0  0  0  0  0  0  0  0  0  0  0  0
    4.9990   -7.5200    3.3640 O   0  0  0  0  0  0  0  0  0  0  0  0
    3.0060   -7.5820    4.6580 C   0  0  0  0  0  0  0  0  0  0  0  0
    5.8420   -5.9030    4.9970 H   0  0  0  0  0  0  0  0  0  0  0  0
   -1.6680   -7.9090    6.7180 C   0  0  0  0  0  0  0  0  0  0  0  0
   -0.6270   -8.5490    7.4050 C   0  0  0  0  0  3  0  0  0  0  0  0
    0.7070   -8.2830    7.0870 C   0  0  0  0  0  3  0  0  0  0  0  0
    1.0270   -7.3670    6.0780 C   0  0  0  0  0  0  0  0  0  0  0  0
   -0.0050   -6.7350    5.3780 C   0  0  0  0  0  3  0  0  0  0  0  0
   -1.3410   -7.0070    5.6940 C   0  0  0  0  0  3  0  0  0  0  0  0
   -4.0110   -6.9990    7.0880 C   0  0  0  0  0  1  0  0  0  0  0  0
   -3.1080   -8.2350    7.0780 C   0  0  0  0  0  3  0  0  0  0  0  0
   -3.6670   -9.3100    6.1450 C   0  0  0  0  0  1  0  0  0  0  0  0
    2.2940   -8.4640    3.6450 C   0  0  0  0  0  2  0  0  0  0  0  0
    1.7030   -9.1960    2.8050 N   0  0  0  0  0  1  0  0  0  0  0  0
    5.0960   -4.7450    7.4050 S   0  0  0  0  0  0  0  0  0  0  0  0
    5.1430   -3.1790    6.5070 C   0  0  0  0  0  2  0  0  0  0  0  0
    3.8250   -2.6580    5.9950 C   0  0  0  0  0  0  0  0  0  0  0  0
    3.3140   -3.1280    4.7780 C   0  0  0  0  0  3  0  0  0  0  0  0
    2.0830   -2.6720    4.3000 C   0  0  0  0  0  3  0  0  0  0  0  0
    1.3280   -1.7530    5.0310 C   0  0  0  0  0  0  0  0  0  0  0  0
    1.8210   -1.2930    6.2520 C   0  0  0  0  0  3  0  0  0  0  0  0
    3.0560   -1.7470    6.7330 C   0  0  0  0  0  3  0  0  0  0  0  0
    0.1450   -1.4050    4.4460 O   0  0  0  0  0  0  0  0  0  0  0  0
    0.1640   -0.3660    3.4830 C   0  0  0  0  0  0  0  0  0  0  0  0
    0.7660    0.7390    3.9710 F   0  0  0  0  0  0  0  0  0  0  0  0
    0.7890   -0.7610    2.3530 F   0  0  0  0  0  0  0  0  0  0  0  0
   -1.1110   -0.0460    3.1670 F   0  0  0  0  0  0  0  0  0  0  0  0
  1 12  1  0  0  0  0
  1  2  1  0  0  0  0
  3  2  2  0  0  0  0
  3 20  1  0  0  0  0
  4  3  1  0  0  0  0
  5  7  1  0  0  0  0
  5  4  1  0  0  0  0
  6  5  2  0  0  0  0
  7  1  2  0  0  0  0
  8  4  1  0  0  0  0
  9 16  1  0  0  0  0
  9 10  1  0  0  0  0
 11 10  2  0  0  0  0
 12 11  1  0  0  0  0
 13 14  1  0  0  0  0
 13 12  2  0  0  0  0
 14  9  2  0  0  0  0
 16 15  1  0  0  0  0
 17 16  1  0  0  0  0
 18  7  1  0  0  0  0
 19 18  1  0  0  0  0
 21 20  1  0  0  0  0
 22 21  1  0  0  0  0
 22 27  1  0  0  0  0
 23 22  2  0  0  0  0
 24 23  1  0  0  0  0
 24 25  2  0  0  0  0
 25 26  1  0  0  0  0
 26 27  2  0  0  0  0
 28 25  1  0  0  0  0
 29 30  1  0  0  0  0
 29 28  1  0  0  0  0
 31 29  1  0  0  0  0
 32 29  1  0  0  0  0
M  END
>  <minimizedAffinity>
-2.16417193

$$$$
