
 OpenBabel09122222393D

 37 42  0  0  0  0  0  0  0  0999 V2000
    5.0700   -7.8550    1.4650 C   0  0  0  0  0  0  0  0  0  0  0  0
    5.2700   -8.9490    2.3160 C   0  0  0  0  0  3  0  0  0  0  0  0
    4.3680  -10.0180    2.3210 C   0  0  0  0  0  3  0  0  0  0  0  0
    3.2420   -9.9960    1.4950 C   0  0  0  0  0  0  0  0  0  0  0  0
    2.9980   -8.8790    0.6940 C   0  0  0  0  0  3  0  0  0  0  0  0
    3.9110   -7.8200    0.6770 C   0  0  0  0  0  3  0  0  0  0  0  0
    9.2700   -3.6630    0.6160 C   0  0  0  0  0  0  0  0  0  0  0  0
    8.5660   -2.9600    1.6060 C   0  0  0  0  0  3  0  0  0  0  0  0
    7.4250   -3.4850    2.2270 C   0  0  0  0  0  3  0  0  0  0  0  0
    6.9970   -4.7580    1.8270 C   0  0  0  0  0  0  0  0  0  0  0  0
    7.6630   -5.4790    0.8400 C   0  0  0  0  0  0  0  0  0  0  0  0
    8.8060   -4.9370    0.2310 C   0  0  0  0  0  3  0  0  0  0  0  0
    7.0490   -6.6840    0.6190 N   0  0  0  0  0  0  0  0  0  0  0  0
    6.0010   -6.7230    1.4200 C   0  0  0  0  0  0  0  0  0  0  0  0
    5.9660   -5.5900    2.2230 N   0  0  0  0  0  0  0  0  0  0  0  0
    5.0480   -5.3510    3.3340 C   0  0  0  0  0  3  0  0  0  0  0  0
    3.9500   -4.3230    3.0090 C   0  0  0  0  0  2  0  0  0  0  0  0
    3.0560   -4.0680    4.2230 C   0  0  0  0  0  2  0  0  0  0  0  0
    2.4730   -5.3670    4.7760 C   0  0  0  0  0  2  0  0  0  0  0  0
    3.5660   -6.3790    5.1090 C   0  0  0  0  0  2  0  0  0  0  0  0
    4.4650   -6.6540    3.9060 C   0  0  0  0  0  2  0  0  0  0  0  0
   11.5630   -3.0300    0.6800 O   0  0  0  0  0  1  0  0  0  0  0  0
   10.5050   -3.0610   -0.0250 C   0  0  0  0  0  0  0  0  0  0  0  0
   10.3950   -2.6360   -1.2180 O   0  0  0  0  0  0  0  0  0  0  0  0
    2.4140  -11.0950    1.5990 O   0  0  0  0  0  0  0  0  0  0  0  0
    2.5880  -12.1410    0.7170 C   0  0  0  0  0  0  0  0  0  0  0  0
    2.2230  -11.9930   -0.6290 C   0  0  0  0  0  3  0  0  0  0  0  0
    2.4390  -13.0320   -1.5300 C   0  0  0  0  0  3  0  0  0  0  0  0
    3.0440  -14.2100   -1.0960 C   0  0  0  0  0  3  0  0  0  0  0  0
    3.4440  -14.3420    0.2370 C   0  0  0  0  0  3  0  0  0  0  0  0
    3.2350  -13.3080    1.1680 C   0  0  0  0  0  0  0  0  0  0  0  0
    3.7010  -13.4690    2.5560 C   0  0  0  0  0  0  0  0  0  0  0  0
    5.0650  -13.4050    2.8800 C   0  0  0  0  0  3  0  0  0  0  0  0
    5.4990  -13.5600    4.1990 C   0  0  0  0  0  3  0  0  0  0  0  0
    4.5740  -13.7790    5.2170 C   0  0  0  0  0  3  0  0  0  0  0  0
    3.2160  -13.8430    4.9180 C   0  0  0  0  0  3  0  0  0  0  0  0
    2.7840  -13.6870    3.5990 C   0  0  0  0  0  3  0  0  0  0  0  0
  1  2  1  0  0  0  0
  2  3  2  0  0  0  0
  4 25  1  0  0  0  0
  4  3  1  0  0  0  0
  5  4  2  0  0  0  0
  6  5  1  0  0  0  0
  6  1  2  0  0  0  0
  7  8  1  0  0  0  0
  8  9  2  0  0  0  0
 10 15  1  0  0  0  0
 10  9  1  0  0  0  0
 11 10  2  0  0  0  0
 12  7  2  0  0  0  0
 12 11  1  0  0  0  0
 13 11  1  0  0  0  0
 13 14  2  0  0  0  0
 14  1  1  0  0  0  0
 14 15  1  0  0  0  0
 15 16  1  0  0  0  0
 16 21  1  0  0  0  0
 17 16  1  0  0  0  0
 17 18  1  0  0  0  0
 18 19  1  0  0  0  0
 19 20  1  0  0  0  0
 21 20  1  0  0  0  0
 23  7  1  0  0  0  0
 23 22  1  0  0  0  0
 24 23  2  0  0  0  0
 26 31  1  0  0  0  0
 26 25  1  0  0  0  0
 27 26  2  0  0  0  0
 28 29  2  0  0  0  0
 28 27  1  0  0  0  0
 29 30  1  0  0  0  0
 30 31  2  0  0  0  0
 31 32  1  0  0  0  0
 32 33  2  0  0  0  0
 32 37  1  0  0  0  0
 33 34  1  0  0  0  0
 34 35  2  0  0  0  0
 36 35  1  0  0  0  0
 37 36  2  0  0  0  0
M  END
>  <minimizedAffinity>
-8.13746548

$$$$
