
 OpenBabel09122222393D

 37 42  0  0  0  0  0  0  0  0999 V2000
    5.9340   -7.5090    1.9290 C   0  0  0  0  0  0  0  0  0  0  0  0
    4.6470   -7.6720    1.4030 C   0  0  0  0  0  3  0  0  0  0  0  0
    3.8950   -8.8120    1.7070 C   0  0  0  0  0  3  0  0  0  0  0  0
    4.4290   -9.8140    2.5200 C   0  0  0  0  0  0  0  0  0  0  0  0
    5.7370   -9.6920    2.9930 C   0  0  0  0  0  3  0  0  0  0  0  0
    6.4800   -8.5430    2.7030 C   0  0  0  0  0  3  0  0  0  0  0  0
    9.6680   -3.1600    0.1740 C   0  0  0  0  0  0  0  0  0  0  0  0
    8.9320   -2.3640    1.0670 C   0  0  0  0  0  3  0  0  0  0  0  0
    7.8710   -2.8770    1.8240 C   0  0  0  0  0  3  0  0  0  0  0  0
    7.5580   -4.2330    1.6660 C   0  0  0  0  0  0  0  0  0  0  0  0
    8.2580   -5.0500    0.7830 C   0  0  0  0  0  0  0  0  0  0  0  0
    9.3190   -4.5180    0.0330 C   0  0  0  0  0  3  0  0  0  0  0  0
    7.7580   -6.3260    0.7980 N   0  0  0  0  0  0  0  0  0  0  0  0
    6.7470   -6.3220    1.6460 C   0  0  0  0  0  0  0  0  0  0  0  0
    6.6280   -5.0750    2.2480 N   0  0  0  0  0  0  0  0  0  0  0  0
    5.7290   -4.7340    3.3480 C   0  0  0  0  0  3  0  0  0  0  0  0
    6.3560   -3.7730    4.3740 C   0  0  0  0  0  2  0  0  0  0  0  0
    5.3960   -3.4980    5.5310 C   0  0  0  0  0  2  0  0  0  0  0  0
    4.0430   -2.9940    5.0330 C   0  0  0  0  0  2  0  0  0  0  0  0
    3.4190   -3.9560    4.0260 C   0  0  0  0  0  2  0  0  0  0  0  0
    4.3600   -4.2370    2.8570 C   0  0  0  0  0  2  0  0  0  0  0  0
   10.5110   -1.7880   -1.5780 O   0  0  0  0  0  0  0  0  0  0  0  0
   10.8150   -2.5670   -0.6200 C   0  0  0  0  0  0  0  0  0  0  0  0
   11.9940   -2.8890   -0.2700 O   0  0  0  0  0  1  0  0  0  0  0  0
    3.6040  -10.8980    2.7360 O   0  0  0  0  0  0  0  0  0  0  0  0
    3.0640  -11.5470    1.6470 C   0  0  0  0  0  0  0  0  0  0  0  0
    3.7830  -11.6170    0.4440 C   0  0  0  0  0  3  0  0  0  0  0  0
    3.2590  -12.3120   -0.6440 C   0  0  0  0  0  3  0  0  0  0  0  0
    2.0300  -12.9580   -0.5260 C   0  0  0  0  0  3  0  0  0  0  0  0
    1.3330  -12.9210    0.6850 C   0  0  0  0  0  3  0  0  0  0  0  0
    1.8390  -12.2260    1.7990 C   0  0  0  0  0  0  0  0  0  0  0  0
    1.0940  -12.2370    3.0690 C   0  0  0  0  0  0  0  0  0  0  0  0
    1.2530  -13.2760    4.0000 C   0  0  0  0  0  3  0  0  0  0  0  0
    0.5410  -13.2810    5.2010 C   0  0  0  0  0  3  0  0  0  0  0  0
   -0.3420  -12.2430    5.4940 C   0  0  0  0  0  3  0  0  0  0  0  0
   -0.5120  -11.2020    4.5860 C   0  0  0  0  0  3  0  0  0  0  0  0
    0.2010  -11.1980    3.3850 C   0  0  0  0  0  3  0  0  0  0  0  0
  1  6  1  0  0  0  0
  2  3  1  0  0  0  0
  2  1  2  0  0  0  0
  3  4  2  0  0  0  0
  4 25  1  0  0  0  0
  4  5  1  0  0  0  0
  6  5  2  0  0  0  0
  7  8  1  0  0  0  0
  8  9  2  0  0  0  0
 10  9  1  0  0  0  0
 10 15  1  0  0  0  0
 11 13  1  0  0  0  0
 11 10  2  0  0  0  0
 12  7  2  0  0  0  0
 12 11  1  0  0  0  0
 13 14  2  0  0  0  0
 14  1  1  0  0  0  0
 14 15  1  0  0  0  0
 15 16  1  0  0  0  0
 16 17  1  0  0  0  0
 17 18  1  0  0  0  0
 19 18  1  0  0  0  0
 20 19  1  0  0  0  0
 21 16  1  0  0  0  0
 21 20  1  0  0  0  0
 22 23  2  0  0  0  0
 23 24  1  0  0  0  0
 23  7  1  0  0  0  0
 26 31  1  0  0  0  0
 26 25  1  0  0  0  0
 27 26  2  0  0  0  0
 28 29  2  0  0  0  0
 28 27  1  0  0  0  0
 29 30  1  0  0  0  0
 30 31  2  0  0  0  0
 31 32  1  0  0  0  0
 32 37  2  0  0  0  0
 32 33  1  0  0  0  0
 33 34  2  0  0  0  0
 34 35  1  0  0  0  0
 36 35  2  0  0  0  0
 37 36  1  0  0  0  0
M  END
>  <minimizedAffinity>
-7.28247643

$$$$
