
 OpenBabel09122222393D

 37 42  0  0  0  0  0  0  0  0999 V2000
    5.3220   -7.0110    1.1480 C   0  0  0  0  0  0  0  0  0  0  0  0
    4.3330   -7.0340    0.1560 C   0  0  0  0  0  3  0  0  0  0  0  0
    3.3370   -8.0160    0.1710 C   0  0  0  0  0  3  0  0  0  0  0  0
    3.3300   -9.0000    1.1610 C   0  0  0  0  0  0  0  0  0  0  0  0
    4.3510   -9.0270    2.1120 C   0  0  0  0  0  3  0  0  0  0  0  0
    5.3360   -8.0320    2.1070 C   0  0  0  0  0  3  0  0  0  0  0  0
    9.9500   -3.2470    0.5530 C   0  0  0  0  0  0  0  0  0  0  0  0
    9.3470   -2.5640    1.6220 C   0  0  0  0  0  3  0  0  0  0  0  0
    8.1670   -3.0150    2.2270 C   0  0  0  0  0  3  0  0  0  0  0  0
    7.5920   -4.1910    1.7280 C   0  0  0  0  0  0  0  0  0  0  0  0
    8.1540   -4.8880    0.6620 C   0  0  0  0  0  0  0  0  0  0  0  0
    9.3390   -4.4210    0.0710 C   0  0  0  0  0  3  0  0  0  0  0  0
    7.4040   -5.9920    0.3520 N   0  0  0  0  0  0  0  0  0  0  0  0
    6.3730   -5.9890    1.1760 C   0  0  0  0  0  0  0  0  0  0  0  0
    6.4810   -4.9370    2.0780 N   0  0  0  0  0  0  0  0  0  0  0  0
    5.6170   -4.7020    3.2310 C   0  0  0  0  0  3  0  0  0  0  0  0
    6.2580   -3.8020    4.3030 C   0  0  0  0  0  2  0  0  0  0  0  0
    5.3350   -3.6380    5.5100 C   0  0  0  0  0  2  0  0  0  0  0  0
    3.9530   -3.1360    5.0990 C   0  0  0  0  0  2  0  0  0  0  0  0
    3.3150   -4.0380    4.0460 C   0  0  0  0  0  2  0  0  0  0  0  0
    4.2180   -4.2080    2.8270 C   0  0  0  0  0  2  0  0  0  0  0  0
   12.3170   -3.2800    0.3070 O   0  0  0  0  0  1  0  0  0  0  0  0
   11.2330   -2.7290   -0.0660 C   0  0  0  0  0  0  0  0  0  0  0  0
   11.1320   -1.7870   -0.9140 O   0  0  0  0  0  0  0  0  0  0  0  0
    2.3120   -9.9260    1.0630 O   0  0  0  0  0  0  0  0  0  0  0  0
    1.9640  -10.6490    2.1850 C   0  0  0  0  0  0  0  0  0  0  0  0
    1.4110   -9.9970    3.2960 C   0  0  0  0  0  3  0  0  0  0  0  0
    1.0170  -10.7310    4.4120 C   0  0  0  0  0  3  0  0  0  0  0  0
    1.1500  -12.1180    4.4110 C   0  0  0  0  0  3  0  0  0  0  0  0
    1.6650  -12.7700    3.2870 C   0  0  0  0  0  3  0  0  0  0  0  0
    2.0720  -12.0530    2.1470 C   0  0  0  0  0  0  0  0  0  0  0  0
    2.5780  -12.7770    0.9690 C   0  0  0  0  0  0  0  0  0  0  0  0
    3.7800  -13.5000    1.0160 C   0  0  0  0  0  3  0  0  0  0  0  0
    4.2530  -14.1820   -0.1060 C   0  0  0  0  0  3  0  0  0  0  0  0
    3.5300  -14.1550   -1.2970 C   0  0  0  0  0  3  0  0  0  0  0  0
    2.3330  -13.4460   -1.3640 C   0  0  0  0  0  3  0  0  0  0  0  0
    1.8610  -12.7650   -0.2400 C   0  0  0  0  0  3  0  0  0  0  0  0
  1 14  1  0  0  0  0
  1  6  1  0  0  0  0
  2  3  1  0  0  0  0
  2  1  2  0  0  0  0
  3  4  2  0  0  0  0
  4  5  1  0  0  0  0
  6  5  2  0  0  0  0
  7  8  1  0  0  0  0
  8  9  2  0  0  0  0
 10 15  1  0  0  0  0
 10  9  1  0  0  0  0
 11 10  2  0  0  0  0
 12  7  2  0  0  0  0
 12 11  1  0  0  0  0
 13 11  1  0  0  0  0
 13 14  2  0  0  0  0
 14 15  1  0  0  0  0
 15 16  1  0  0  0  0
 16 17  1  0  0  0  0
 17 18  1  0  0  0  0
 19 18  1  0  0  0  0
 20 19  1  0  0  0  0
 21 16  1  0  0  0  0
 21 20  1  0  0  0  0
 23 22  1  0  0  0  0
 23  7  1  0  0  0  0
 24 23  2  0  0  0  0
 25  4  1  0  0  0  0
 25 26  1  0  0  0  0
 26 27  1  0  0  0  0
 27 28  2  0  0  0  0
 29 28  1  0  0  0  0
 30 29  2  0  0  0  0
 31 26  2  0  0  0  0
 31 30  1  0  0  0  0
 32 33  1  0  0  0  0
 32 31  1  0  0  0  0
 34 33  2  0  0  0  0
 35 34  1  0  0  0  0
 36 35  2  0  0  0  0
 36 37  1  0  0  0  0
 37 32  2  0  0  0  0
M  END
>  <minimizedAffinity>
-8.42218399

$$$$
