
 OpenBabel09122222393D

 37 42  0  0  0  0  0  0  0  0999 V2000
    9.2450   -1.0210    2.7890 C   0  0  0  0  0  0  0  0  0  0  0  0
    9.8020   -0.9460    4.0720 C   0  0  0  0  0  3  0  0  0  0  0  0
   10.2240    0.2820    4.5910 C   0  0  0  0  0  3  0  0  0  0  0  0
   10.1170    1.4460    3.8280 C   0  0  0  0  0  0  0  0  0  0  0  0
    9.6260    1.3710    2.5230 C   0  0  0  0  0  3  0  0  0  0  0  0
    9.1880    0.1440    2.0120 C   0  0  0  0  0  3  0  0  0  0  0  0
    6.7200   -6.1850    1.0870 C   0  0  0  0  0  0  0  0  0  0  0  0
    7.6420   -6.1220    0.0290 C   0  0  0  0  0  3  0  0  0  0  0  0
    8.5640   -5.0750   -0.0960 C   0  0  0  0  0  3  0  0  0  0  0  0
    8.5440   -4.0720    0.8820 C   0  0  0  0  0  0  0  0  0  0  0  0
    7.6370   -4.0960    1.9380 C   0  0  0  0  0  0  0  0  0  0  0  0
    6.7220   -5.1550    2.0480 C   0  0  0  0  0  3  0  0  0  0  0  0
    7.8070   -3.0050    2.7500 N   0  0  0  0  0  0  0  0  0  0  0  0
    8.7770   -2.2870    2.2160 C   0  0  0  0  0  0  0  0  0  0  0  0
    9.2990   -2.9350    1.1040 N   0  0  0  0  0  0  0  0  0  0  0  0
   10.4790   -2.5260    0.3460 C   0  0  0  0  0  3  0  0  0  0  0  0
   11.4460   -3.6860    0.0460 C   0  0  0  0  0  2  0  0  0  0  0  0
   12.6880   -3.1920   -0.6950 C   0  0  0  0  0  2  0  0  0  0  0  0
   12.3200   -2.4180   -1.9590 C   0  0  0  0  0  2  0  0  0  0  0  0
   11.3710   -1.2610   -1.6560 C   0  0  0  0  0  2  0  0  0  0  0  0
   10.1190   -1.7360   -0.9220 C   0  0  0  0  0  2  0  0  0  0  0  0
    5.7870   -8.0380    2.2540 O   0  0  0  0  0  1  0  0  0  0  0  0
    5.7450   -7.3410    1.1900 C   0  0  0  0  0  0  0  0  0  0  0  0
    4.9550   -7.5270    0.2110 O   0  0  0  0  0  0  0  0  0  0  0  0
   10.5820    2.5940    4.4350 O   0  0  0  0  0  0  0  0  0  0  0  0
   11.9400    2.8300    4.4550 C   0  0  0  0  0  0  0  0  0  0  0  0
   12.7160    2.3790    5.5320 C   0  0  0  0  0  3  0  0  0  0  0  0
   14.0940    2.5770    5.5320 C   0  0  0  0  0  3  0  0  0  0  0  0
   14.7040    3.2010    4.4460 C   0  0  0  0  0  3  0  0  0  0  0  0
   13.9350    3.6150    3.3540 C   0  0  0  0  0  3  0  0  0  0  0  0
   12.5400    3.4290    3.3300 C   0  0  0  0  0  0  0  0  0  0  0  0
   11.7670    3.8460    2.1480 C   0  0  0  0  0  0  0  0  0  0  0  0
   11.9850    3.2630    0.8900 C   0  0  0  0  0  3  0  0  0  0  0  0
   11.2490    3.6660   -0.2270 C   0  0  0  0  0  3  0  0  0  0  0  0
   10.2790    4.6580   -0.1030 C   0  0  0  0  0  3  0  0  0  0  0  0
   10.0450    5.2470    1.1370 C   0  0  0  0  0  3  0  0  0  0  0  0
   10.7820    4.8430    2.2530 C   0  0  0  0  0  3  0  0  0  0  0  0
  1  2  1  0  0  0  0
  2  3  2  0  0  0  0
  4 25  1  0  0  0  0
  4  3  1  0  0  0  0
  5  4  2  0  0  0  0
  6  5  1  0  0  0  0
  6  1  2  0  0  0  0
  7 23  1  0  0  0  0
  7 12  1  0  0  0  0
  8  7  2  0  0  0  0
  9  8  1  0  0  0  0
  9 10  2  0  0  0  0
 10 15  1  0  0  0  0
 10 11  1  0  0  0  0
 11 12  2  0  0  0  0
 11 13  1  0  0  0  0
 14 13  2  0  0  0  0
 14  1  1  0  0  0  0
 15 14  1  0  0  0  0
 16 15  1  0  0  0  0
 17 16  1  0  0  0  0
 18 17  1  0  0  0  0
 19 20  1  0  0  0  0
 19 18  1  0  0  0  0
 20 21  1  0  0  0  0
 21 16  1  0  0  0  0
 23 22  1  0  0  0  0
 24 23  2  0  0  0  0
 25 26  1  0  0  0  0
 26 27  1  0  0  0  0
 27 28  2  0  0  0  0
 29 28  1  0  0  0  0
 30 29  2  0  0  0  0
 31 30  1  0  0  0  0
 31 26  2  0  0  0  0
 32 37  1  0  0  0  0
 32 31  1  0  0  0  0
 33 32  2  0  0  0  0
 34 35  2  0  0  0  0
 34 33  1  0  0  0  0
 35 36  1  0  0  0  0
 36 37  2  0  0  0  0
M  END
>  <minimizedAffinity>
-7.61592436

$$$$
