
 OpenBabel09122221183D

 37 42  0  0  0  0  0  0  0  0999 V2000
    5.4450   -7.5620    1.5770 C   0  0  0  0  0  0  0  0  0  0  0  0
    5.6450   -8.5740    2.5250 C   0  0  0  0  0  3  0  0  0  0  0  0
    4.7460   -9.6410    2.6220 C   0  0  0  0  0  3  0  0  0  0  0  0
    3.6240   -9.6980    1.7920 C   0  0  0  0  0  0  0  0  0  0  0  0
    3.3800   -8.6590    0.8930 C   0  0  0  0  0  3  0  0  0  0  0  0
    4.2910   -7.6020    0.7840 C   0  0  0  0  0  3  0  0  0  0  0  0
    9.6140   -3.4340    0.3460 C   0  0  0  0  0  0  0  0  0  0  0  0
    8.9360   -2.6680    1.3080 C   0  0  0  0  0  3  0  0  0  0  0  0
    7.8130   -3.1520    1.9920 C   0  0  0  0  0  3  0  0  0  0  0  0
    7.3770   -4.4480    1.6860 C   0  0  0  0  0  0  0  0  0  0  0  0
    8.0180   -5.2320    0.7310 C   0  0  0  0  0  0  0  0  0  0  0  0
    9.1430   -4.7300    0.0570 C   0  0  0  0  0  3  0  0  0  0  0  0
    7.3990   -6.4480    0.6040 N   0  0  0  0  0  0  0  0  0  0  0  0
    6.3730   -6.4360    1.4340 C   0  0  0  0  0  0  0  0  0  0  0  0
    6.3580   -5.2520    2.1630 N   0  0  0  0  0  0  0  0  0  0  0  0
    5.4690   -4.9420    3.2800 C   0  0  0  0  0  3  0  0  0  0  0  0
    6.1010   -4.0010    4.3210 C   0  0  0  0  0  2  0  0  0  0  0  0
    5.1520   -3.7580    5.4940 C   0  0  0  0  0  2  0  0  0  0  0  0
    3.7900   -3.2530    5.0220 C   0  0  0  0  0  2  0  0  0  0  0  0
    3.1610   -4.1950    4.0000 C   0  0  0  0  0  2  0  0  0  0  0  0
    4.0920   -4.4430    2.8150 C   0  0  0  0  0  2  0  0  0  0  0  0
   10.6250   -2.2350   -1.4440 O   0  0  0  0  0  0  0  0  0  0  0  0
   10.8320   -2.8760   -0.3650 C   0  0  0  0  0  0  0  0  0  0  0  0
   11.9660   -3.0840    0.1700 O   0  0  0  0  0  1  0  0  0  0  0  0
    2.8000  -10.7860    1.9910 O   0  0  0  0  0  0  0  0  0  0  0  0
    2.8700  -11.8410    1.1070 C   0  0  0  0  0  0  0  0  0  0  0  0
    2.4740  -11.6670   -0.2270 C   0  0  0  0  0  3  0  0  0  0  0  0
    2.5870  -12.7190   -1.1330 C   0  0  0  0  0  3  0  0  0  0  0  0
    3.1190  -13.9370   -0.7160 C   0  0  0  0  0  3  0  0  0  0  0  0
    3.5510  -14.0970    0.6040 C   0  0  0  0  0  3  0  0  0  0  0  0
    3.4460  -13.0520    1.5390 C   0  0  0  0  0  0  0  0  0  0  0  0
    3.9430  -13.2460    2.9120 C   0  0  0  0  0  0  0  0  0  0  0  0
    3.0640  -13.4920    3.9790 C   0  0  0  0  0  3  0  0  0  0  0  0
    3.5430  -13.6730    5.2780 C   0  0  0  0  0  3  0  0  0  0  0  0
    4.9120  -13.6140    5.5320 C   0  0  0  0  0  3  0  0  0  0  0  0
    5.8010  -13.3740    4.4880 C   0  0  0  0  0  3  0  0  0  0  0  0
    5.3200  -13.1940    3.1890 C   0  0  0  0  0  3  0  0  0  0  0  0
  1  2  1  0  0  0  0
  2  3  2  0  0  0  0
  4 25  1  0  0  0  0
  4  3  1  0  0  0  0
  5  4  2  0  0  0  0
  6  5  1  0  0  0  0
  6  1  2  0  0  0  0
  7  8  1  0  0  0  0
  8  9  2  0  0  0  0
 10  9  1  0  0  0  0
 10 15  1  0  0  0  0
 11 10  2  0  0  0  0
 12  7  2  0  0  0  0
 12 11  1  0  0  0  0
 13 11  1  0  0  0  0
 13 14  2  0  0  0  0
 14  1  1  0  0  0  0
 14 15  1  0  0  0  0
 15 16  1  0  0  0  0
 16 17  1  0  0  0  0
 17 18  1  0  0  0  0
 19 18  1  0  0  0  0
 20 19  1  0  0  0  0
 21 16  1  0  0  0  0
 21 20  1  0  0  0  0
 22 23  2  0  0  0  0
 23 24  1  0  0  0  0
 23  7  1  0  0  0  0
 26 31  1  0  0  0  0
 26 25  1  0  0  0  0
 27 26  2  0  0  0  0
 28 29  2  0  0  0  0
 28 27  1  0  0  0  0
 29 30  1  0  0  0  0
 30 31  2  0  0  0  0
 31 32  1  0  0  0  0
 32 37  2  0  0  0  0
 32 33  1  0  0  0  0
 33 34  2  0  0  0  0
 34 35  1  0  0  0  0
 36 35  2  0  0  0  0
 37 36  1  0  0  0  0
M  END
>  <minimizedAffinity>
-8.62428474

$$$$

 OpenBabel09122221183D

 37 42  0  0  0  0  0  0  0  0999 V2000
    4.9020   -7.3360    1.7180 C   0  0  0  0  0  0  0  0  0  0  0  0
    4.1090   -7.8100    0.6650 C   0  0  0  0  0  3  0  0  0  0  0  0
    3.0950   -8.7430    0.9050 C   0  0  0  0  0  3  0  0  0  0  0  0
    2.8770   -9.2320    2.1950 C   0  0  0  0  0  0  0  0  0  0  0  0
    3.7070   -8.8180    3.2380 C   0  0  0  0  0  3  0  0  0  0  0  0
    4.7080   -7.8700    2.9990 C   0  0  0  0  0  3  0  0  0  0  0  0
    9.5150   -3.8180    0.2090 C   0  0  0  0  0  0  0  0  0  0  0  0
    8.9980   -2.9600    1.1930 C   0  0  0  0  0  3  0  0  0  0  0  0
    7.8590   -3.2830    1.9430 C   0  0  0  0  0  3  0  0  0  0  0  0
    7.2370   -4.5110    1.6800 C   0  0  0  0  0  0  0  0  0  0  0  0
    7.7140   -5.3800    0.7030 C   0  0  0  0  0  0  0  0  0  0  0  0
    8.8590   -5.0400   -0.0360 C   0  0  0  0  0  3  0  0  0  0  0  0
    6.9320   -6.5030    0.6270 N   0  0  0  0  0  0  0  0  0  0  0  0
    5.9630   -6.3460    1.5090 C   0  0  0  0  0  0  0  0  0  0  0  0
    6.1470   -5.1670    2.2210 N   0  0  0  0  0  0  0  0  0  0  0  0
    5.3700   -4.7320    3.3780 C   0  0  0  0  0  3  0  0  0  0  0  0
    6.1410   -3.7790    4.3100 C   0  0  0  0  0  2  0  0  0  0  0  0
    5.3040   -3.4040    5.5320 C   0  0  0  0  0  2  0  0  0  0  0  0
    3.9470   -2.8310    5.1310 C   0  0  0  0  0  2  0  0  0  0  0  0
    3.1790   -3.7830    4.2180 C   0  0  0  0  0  2  0  0  0  0  0  0
    3.9970   -4.1640    2.9860 C   0  0  0  0  0  2  0  0  0  0  0  0
   10.6730   -2.4040   -1.3160 O   0  0  0  0  0  0  0  0  0  0  0  0
   10.7560   -3.4340   -0.5730 C   0  0  0  0  0  0  0  0  0  0  0  0
   11.7860   -4.1630   -0.4280 O   0  0  0  0  0  1  0  0  0  0  0  0
    1.8630  -10.1620    2.3080 O   0  0  0  0  0  0  0  0  0  0  0  0
    2.0240  -11.2130    3.1860 C   0  0  0  0  0  0  0  0  0  0  0  0
    1.6680  -11.0630    4.5340 C   0  0  0  0  0  3  0  0  0  0  0  0
    1.7860  -12.1370    5.4120 C   0  0  0  0  0  3  0  0  0  0  0  0
    2.2340  -13.3690    4.9420 C   0  0  0  0  0  3  0  0  0  0  0  0
    2.5510  -13.5290    3.5890 C   0  0  0  0  0  3  0  0  0  0  0  0
    2.4430  -12.4600    2.6810 C   0  0  0  0  0  0  0  0  0  0  0  0
    2.7520  -12.6740    1.2580 C   0  0  0  0  0  0  0  0  0  0  0  0
    1.7370  -12.7240    0.2890 C   0  0  0  0  0  3  0  0  0  0  0  0
    2.0380  -12.9300   -1.0590 C   0  0  0  0  0  3  0  0  0  0  0  0
    3.3630  -13.0870   -1.4620 C   0  0  0  0  0  3  0  0  0  0  0  0
    4.3850  -13.0370   -0.5180 C   0  0  0  0  0  3  0  0  0  0  0  0
    4.0820  -12.8310    0.8300 C   0  0  0  0  0  3  0  0  0  0  0  0
  1  6  1  0  0  0  0
  2  3  1  0  0  0  0
  2  1  2  0  0  0  0
  3  4  2  0  0  0  0
  4 25  1  0  0  0  0
  4  5  1  0  0  0  0
  6  5  2  0  0  0  0
  7  8  1  0  0  0  0
  8  9  2  0  0  0  0
 10  9  1  0  0  0  0
 10 15  1  0  0  0  0
 11 10  2  0  0  0  0
 12  7  2  0  0  0  0
 12 11  1  0  0  0  0
 13 11  1  0  0  0  0
 13 14  2  0  0  0  0
 14  1  1  0  0  0  0
 14 15  1  0  0  0  0
 15 16  1  0  0  0  0
 16 17  1  0  0  0  0
 17 18  1  0  0  0  0
 19 18  1  0  0  0  0
 20 19  1  0  0  0  0
 21 16  1  0  0  0  0
 21 20  1  0  0  0  0
 22 23  2  0  0  0  0
 23 24  1  0  0  0  0
 23  7  1  0  0  0  0
 25 26  1  0  0  0  0
 26 27  1  0  0  0  0
 27 28  2  0  0  0  0
 29 28  1  0  0  0  0
 30 29  2  0  0  0  0
 31 26  2  0  0  0  0
 31 30  1  0  0  0  0
 32 31  1  0  0  0  0
 33 32  2  0  0  0  0
 34 33  1  0  0  0  0
 35 34  2  0  0  0  0
 35 36  1  0  0  0  0
 36 37  2  0  0  0  0
 37 32  1  0  0  0  0
M  END
>  <minimizedAffinity>
-8.61135483

$$$$

 OpenBabel09122221183D

 37 42  0  0  0  0  0  0  0  0999 V2000
    5.3220   -7.0110    1.1480 C   0  0  0  0  0  0  0  0  0  0  0  0
    4.3330   -7.0340    0.1560 C   0  0  0  0  0  3  0  0  0  0  0  0
    3.3370   -8.0160    0.1710 C   0  0  0  0  0  3  0  0  0  0  0  0
    3.3300   -9.0000    1.1610 C   0  0  0  0  0  0  0  0  0  0  0  0
    4.3510   -9.0270    2.1120 C   0  0  0  0  0  3  0  0  0  0  0  0
    5.3360   -8.0320    2.1070 C   0  0  0  0  0  3  0  0  0  0  0  0
    9.9500   -3.2470    0.5530 C   0  0  0  0  0  0  0  0  0  0  0  0
    9.3470   -2.5640    1.6220 C   0  0  0  0  0  3  0  0  0  0  0  0
    8.1670   -3.0150    2.2270 C   0  0  0  0  0  3  0  0  0  0  0  0
    7.5920   -4.1910    1.7280 C   0  0  0  0  0  0  0  0  0  0  0  0
    8.1540   -4.8880    0.6620 C   0  0  0  0  0  0  0  0  0  0  0  0
    9.3390   -4.4210    0.0710 C   0  0  0  0  0  3  0  0  0  0  0  0
    7.4040   -5.9920    0.3520 N   0  0  0  0  0  0  0  0  0  0  0  0
    6.3730   -5.9890    1.1760 C   0  0  0  0  0  0  0  0  0  0  0  0
    6.4810   -4.9370    2.0780 N   0  0  0  0  0  0  0  0  0  0  0  0
    5.6170   -4.7020    3.2310 C   0  0  0  0  0  3  0  0  0  0  0  0
    6.2580   -3.8020    4.3030 C   0  0  0  0  0  2  0  0  0  0  0  0
    5.3350   -3.6380    5.5100 C   0  0  0  0  0  2  0  0  0  0  0  0
    3.9530   -3.1360    5.0990 C   0  0  0  0  0  2  0  0  0  0  0  0
    3.3150   -4.0380    4.0460 C   0  0  0  0  0  2  0  0  0  0  0  0
    4.2180   -4.2080    2.8270 C   0  0  0  0  0  2  0  0  0  0  0  0
   12.3170   -3.2800    0.3070 O   0  0  0  0  0  1  0  0  0  0  0  0
   11.2330   -2.7290   -0.0660 C   0  0  0  0  0  0  0  0  0  0  0  0
   11.1320   -1.7870   -0.9140 O   0  0  0  0  0  0  0  0  0  0  0  0
    2.3120   -9.9260    1.0630 O   0  0  0  0  0  0  0  0  0  0  0  0
    1.9640  -10.6490    2.1850 C   0  0  0  0  0  0  0  0  0  0  0  0
    1.4110   -9.9970    3.2960 C   0  0  0  0  0  3  0  0  0  0  0  0
    1.0170  -10.7310    4.4120 C   0  0  0  0  0  3  0  0  0  0  0  0
    1.1500  -12.1180    4.4110 C   0  0  0  0  0  3  0  0  0  0  0  0
    1.6650  -12.7700    3.2870 C   0  0  0  0  0  3  0  0  0  0  0  0
    2.0720  -12.0530    2.1470 C   0  0  0  0  0  0  0  0  0  0  0  0
    2.5780  -12.7770    0.9690 C   0  0  0  0  0  0  0  0  0  0  0  0
    3.7800  -13.5000    1.0160 C   0  0  0  0  0  3  0  0  0  0  0  0
    4.2530  -14.1820   -0.1060 C   0  0  0  0  0  3  0  0  0  0  0  0
    3.5300  -14.1550   -1.2970 C   0  0  0  0  0  3  0  0  0  0  0  0
    2.3330  -13.4460   -1.3640 C   0  0  0  0  0  3  0  0  0  0  0  0
    1.8610  -12.7650   -0.2400 C   0  0  0  0  0  3  0  0  0  0  0  0
  1 14  1  0  0  0  0
  1  6  1  0  0  0  0
  2  3  1  0  0  0  0
  2  1  2  0  0  0  0
  3  4  2  0  0  0  0
  4  5  1  0  0  0  0
  6  5  2  0  0  0  0
  7  8  1  0  0  0  0
  8  9  2  0  0  0  0
 10 15  1  0  0  0  0
 10  9  1  0  0  0  0
 11 10  2  0  0  0  0
 12  7  2  0  0  0  0
 12 11  1  0  0  0  0
 13 11  1  0  0  0  0
 13 14  2  0  0  0  0
 14 15  1  0  0  0  0
 15 16  1  0  0  0  0
 16 17  1  0  0  0  0
 17 18  1  0  0  0  0
 19 18  1  0  0  0  0
 20 19  1  0  0  0  0
 21 16  1  0  0  0  0
 21 20  1  0  0  0  0
 23 22  1  0  0  0  0
 23  7  1  0  0  0  0
 24 23  2  0  0  0  0
 25  4  1  0  0  0  0
 25 26  1  0  0  0  0
 26 27  1  0  0  0  0
 27 28  2  0  0  0  0
 29 28  1  0  0  0  0
 30 29  2  0  0  0  0
 31 26  2  0  0  0  0
 31 30  1  0  0  0  0
 32 33  1  0  0  0  0
 32 31  1  0  0  0  0
 34 33  2  0  0  0  0
 35 34  1  0  0  0  0
 36 35  2  0  0  0  0
 36 37  1  0  0  0  0
 37 32  2  0  0  0  0
M  END
>  <minimizedAffinity>
-8.42218399

$$$$

 OpenBabel09122221183D

 37 42  0  0  0  0  0  0  0  0999 V2000
    6.3290   -6.7350    0.6850 C   0  0  0  0  0  0  0  0  0  0  0  0
    7.4850   -6.5730    1.4590 C   0  0  0  0  0  3  0  0  0  0  0  0
    8.4680   -5.6520    1.0810 C   0  0  0  0  0  3  0  0  0  0  0  0
    8.3200   -4.9000   -0.0860 C   0  0  0  0  0  0  0  0  0  0  0  0
    7.2050   -5.1040   -0.9000 C   0  0  0  0  0  3  0  0  0  0  0  0
    6.2140   -6.0120   -0.5100 C   0  0  0  0  0  3  0  0  0  0  0  0
    2.2420  -11.0470    1.4830 C   0  0  0  0  0  0  0  0  0  0  0  0
    1.9430  -10.3470    2.6630 C   0  0  0  0  0  3  0  0  0  0  0  0
    2.6120   -9.1700    3.0240 C   0  0  0  0  0  3  0  0  0  0  0  0
    3.6070   -8.6990    2.1570 C   0  0  0  0  0  0  0  0  0  0  0  0
    3.9380   -9.3720    0.9850 C   0  0  0  0  0  0  0  0  0  0  0  0
    3.2550  -10.5490    0.6400 C   0  0  0  0  0  3  0  0  0  0  0  0
    4.9440   -8.7230    0.3180 N   0  0  0  0  0  0  0  0  0  0  0  0
    5.2700   -7.6780    1.0560 C   0  0  0  0  0  0  0  0  0  0  0  0
    4.4330   -7.5900    2.1610 N   0  0  0  0  0  0  0  0  0  0  0  0
    4.3860   -6.4870    3.1180 C   0  0  0  0  0  3  0  0  0  0  0  0
    4.1410   -5.1170    2.4600 C   0  0  0  0  0  2  0  0  0  0  0  0
    4.1620   -3.9940    3.4980 C   0  0  0  0  0  2  0  0  0  0  0  0
    3.1800   -4.2620    4.6360 C   0  0  0  0  0  2  0  0  0  0  0  0
    3.4330   -5.6160    5.2940 C   0  0  0  0  0  2  0  0  0  0  0  0
    3.4090   -6.7520    4.2740 C   0  0  0  0  0  2  0  0  0  0  0  0
    1.5540  -12.7020   -0.0840 O   0  0  0  0  0  0  0  0  0  0  0  0
    1.4870  -12.3120    1.1260 C   0  0  0  0  0  0  0  0  0  0  0  0
    0.8480  -12.8930    2.0580 O   0  0  0  0  0  1  0  0  0  0  0  0
    9.3600   -4.0380   -0.3670 O   0  0  0  0  0  0  0  0  0  0  0  0
    9.3690   -2.7940    0.2270 C   0  0  0  0  0  0  0  0  0  0  0  0
    8.4730   -2.5060    1.2660 C   0  0  0  0  0  3  0  0  0  0  0  0
    8.5100   -1.2650    1.8980 C   0  0  0  0  0  3  0  0  0  0  0  0
    9.4570   -0.3200    1.5100 C   0  0  0  0  0  3  0  0  0  0  0  0
   10.3760   -0.6220    0.5010 C   0  0  0  0  0  3  0  0  0  0  0  0
   10.3590   -1.8670   -0.1540 C   0  0  0  0  0  0  0  0  0  0  0  0
   11.3640   -2.1630   -1.1890 C   0  0  0  0  0  0  0  0  0  0  0  0
   12.0400   -3.3930   -1.2200 C   0  0  0  0  0  3  0  0  0  0  0  0
   12.9930   -3.6660   -2.2040 C   0  0  0  0  0  3  0  0  0  0  0  0
   13.2850   -2.7120   -3.1770 C   0  0  0  0  0  3  0  0  0  0  0  0
   12.6230   -1.4870   -3.1660 C   0  0  0  0  0  3  0  0  0  0  0  0
   11.6700   -1.2160   -2.1820 C   0  0  0  0  0  3  0  0  0  0  0  0
  1 14  1  0  0  0  0
  1  2  1  0  0  0  0
  3  2  2  0  0  0  0
  4  3  1  0  0  0  0
  5  6  1  0  0  0  0
  5  4  2  0  0  0  0
  6  1  2  0  0  0  0
  7  8  1  0  0  0  0
  8  9  2  0  0  0  0
 10 15  1  0  0  0  0
 10  9  1  0  0  0  0
 11 10  2  0  0  0  0
 12 11  1  0  0  0  0
 12  7  2  0  0  0  0
 13 11  1  0  0  0  0
 13 14  2  0  0  0  0
 14 15  1  0  0  0  0
 15 16  1  0  0  0  0
 16 21  1  0  0  0  0
 17 16  1  0  0  0  0
 17 18  1  0  0  0  0
 18 19  1  0  0  0  0
 19 20  1  0  0  0  0
 21 20  1  0  0  0  0
 22 23  2  0  0  0  0
 23  7  1  0  0  0  0
 23 24  1  0  0  0  0
 25  4  1  0  0  0  0
 25 26  1  0  0  0  0
 26 27  1  0  0  0  0
 27 28  2  0  0  0  0
 29 28  1  0  0  0  0
 30 29  2  0  0  0  0
 31 26  2  0  0  0  0
 31 30  1  0  0  0  0
 32 31  1  0  0  0  0
 33 32  1  0  0  0  0
 34 33  2  0  0  0  0
 35 36  2  0  0  0  0
 35 34  1  0  0  0  0
 36 37  1  0  0  0  0
 37 32  2  0  0  0  0
M  END
>  <minimizedAffinity>
-8.21342087

$$$$

 OpenBabel09122221183D

 37 42  0  0  0  0  0  0  0  0999 V2000
    5.0700   -7.8550    1.4650 C   0  0  0  0  0  0  0  0  0  0  0  0
    5.2700   -8.9490    2.3160 C   0  0  0  0  0  3  0  0  0  0  0  0
    4.3680  -10.0180    2.3210 C   0  0  0  0  0  3  0  0  0  0  0  0
    3.2420   -9.9960    1.4950 C   0  0  0  0  0  0  0  0  0  0  0  0
    2.9980   -8.8790    0.6940 C   0  0  0  0  0  3  0  0  0  0  0  0
    3.9110   -7.8200    0.6770 C   0  0  0  0  0  3  0  0  0  0  0  0
    9.2700   -3.6630    0.6160 C   0  0  0  0  0  0  0  0  0  0  0  0
    8.5660   -2.9600    1.6060 C   0  0  0  0  0  3  0  0  0  0  0  0
    7.4250   -3.4850    2.2270 C   0  0  0  0  0  3  0  0  0  0  0  0
    6.9970   -4.7580    1.8270 C   0  0  0  0  0  0  0  0  0  0  0  0
    7.6630   -5.4790    0.8400 C   0  0  0  0  0  0  0  0  0  0  0  0
    8.8060   -4.9370    0.2310 C   0  0  0  0  0  3  0  0  0  0  0  0
    7.0490   -6.6840    0.6190 N   0  0  0  0  0  0  0  0  0  0  0  0
    6.0010   -6.7230    1.4200 C   0  0  0  0  0  0  0  0  0  0  0  0
    5.9660   -5.5900    2.2230 N   0  0  0  0  0  0  0  0  0  0  0  0
    5.0480   -5.3510    3.3340 C   0  0  0  0  0  3  0  0  0  0  0  0
    3.9500   -4.3230    3.0090 C   0  0  0  0  0  2  0  0  0  0  0  0
    3.0560   -4.0680    4.2230 C   0  0  0  0  0  2  0  0  0  0  0  0
    2.4730   -5.3670    4.7760 C   0  0  0  0  0  2  0  0  0  0  0  0
    3.5660   -6.3790    5.1090 C   0  0  0  0  0  2  0  0  0  0  0  0
    4.4650   -6.6540    3.9060 C   0  0  0  0  0  2  0  0  0  0  0  0
   11.5630   -3.0300    0.6800 O   0  0  0  0  0  1  0  0  0  0  0  0
   10.5050   -3.0610   -0.0250 C   0  0  0  0  0  0  0  0  0  0  0  0
   10.3950   -2.6360   -1.2180 O   0  0  0  0  0  0  0  0  0  0  0  0
    2.4140  -11.0950    1.5990 O   0  0  0  0  0  0  0  0  0  0  0  0
    2.5880  -12.1410    0.7170 C   0  0  0  0  0  0  0  0  0  0  0  0
    2.2230  -11.9930   -0.6290 C   0  0  0  0  0  3  0  0  0  0  0  0
    2.4390  -13.0320   -1.5300 C   0  0  0  0  0  3  0  0  0  0  0  0
    3.0440  -14.2100   -1.0960 C   0  0  0  0  0  3  0  0  0  0  0  0
    3.4440  -14.3420    0.2370 C   0  0  0  0  0  3  0  0  0  0  0  0
    3.2350  -13.3080    1.1680 C   0  0  0  0  0  0  0  0  0  0  0  0
    3.7010  -13.4690    2.5560 C   0  0  0  0  0  0  0  0  0  0  0  0
    5.0650  -13.4050    2.8800 C   0  0  0  0  0  3  0  0  0  0  0  0
    5.4990  -13.5600    4.1990 C   0  0  0  0  0  3  0  0  0  0  0  0
    4.5740  -13.7790    5.2170 C   0  0  0  0  0  3  0  0  0  0  0  0
    3.2160  -13.8430    4.9180 C   0  0  0  0  0  3  0  0  0  0  0  0
    2.7840  -13.6870    3.5990 C   0  0  0  0  0  3  0  0  0  0  0  0
  1  2  1  0  0  0  0
  2  3  2  0  0  0  0
  4 25  1  0  0  0  0
  4  3  1  0  0  0  0
  5  4  2  0  0  0  0
  6  5  1  0  0  0  0
  6  1  2  0  0  0  0
  7  8  1  0  0  0  0
  8  9  2  0  0  0  0
 10 15  1  0  0  0  0
 10  9  1  0  0  0  0
 11 10  2  0  0  0  0
 12  7  2  0  0  0  0
 12 11  1  0  0  0  0
 13 11  1  0  0  0  0
 13 14  2  0  0  0  0
 14  1  1  0  0  0  0
 14 15  1  0  0  0  0
 15 16  1  0  0  0  0
 16 21  1  0  0  0  0
 17 16  1  0  0  0  0
 17 18  1  0  0  0  0
 18 19  1  0  0  0  0
 19 20  1  0  0  0  0
 21 20  1  0  0  0  0
 23  7  1  0  0  0  0
 23 22  1  0  0  0  0
 24 23  2  0  0  0  0
 26 31  1  0  0  0  0
 26 25  1  0  0  0  0
 27 26  2  0  0  0  0
 28 29  2  0  0  0  0
 28 27  1  0  0  0  0
 29 30  1  0  0  0  0
 30 31  2  0  0  0  0
 31 32  1  0  0  0  0
 32 33  2  0  0  0  0
 32 37  1  0  0  0  0
 33 34  1  0  0  0  0
 34 35  2  0  0  0  0
 36 35  1  0  0  0  0
 37 36  2  0  0  0  0
M  END
>  <minimizedAffinity>
-8.13746548

$$$$

 OpenBabel09122221183D

 37 42  0  0  0  0  0  0  0  0999 V2000
    5.2690   -7.3470    1.4700 C   0  0  0  0  0  0  0  0  0  0  0  0
    5.3290   -8.3360    2.4590 C   0  0  0  0  0  3  0  0  0  0  0  0
    4.3600   -9.3430    2.5150 C   0  0  0  0  0  3  0  0  0  0  0  0
    3.3070   -9.3610    1.5980 C   0  0  0  0  0  0  0  0  0  0  0  0
    3.2010   -8.3410    0.6510 C   0  0  0  0  0  3  0  0  0  0  0  0
    4.1810   -7.3450    0.5860 C   0  0  0  0  0  3  0  0  0  0  0  0
    9.7230   -3.4800    0.3990 C   0  0  0  0  0  0  0  0  0  0  0  0
    9.0950   -2.7040    1.3860 C   0  0  0  0  0  3  0  0  0  0  0  0
    7.9380   -3.1330    2.0500 C   0  0  0  0  0  3  0  0  0  0  0  0
    7.4140   -4.3830    1.6970 C   0  0  0  0  0  0  0  0  0  0  0  0
    8.0020   -5.1740    0.7140 C   0  0  0  0  0  0  0  0  0  0  0  0
    9.1630   -4.7280    0.0610 C   0  0  0  0  0  3  0  0  0  0  0  0
    7.3010   -6.3380    0.5420 N   0  0  0  0  0  0  0  0  0  0  0  0
    6.2740   -6.2840    1.3690 C   0  0  0  0  0  0  0  0  0  0  0  0
    6.3390   -5.1300    2.1410 N   0  0  0  0  0  0  0  0  0  0  0  0
    5.4690   -4.8000    3.2670 C   0  0  0  0  0  3  0  0  0  0  0  0
    6.1520   -3.9170    4.3280 C   0  0  0  0  0  2  0  0  0  0  0  0
    5.2180   -3.6520    5.5090 C   0  0  0  0  0  2  0  0  0  0  0  0
    3.8850   -3.0640    5.0530 C   0  0  0  0  0  2  0  0  0  0  0  0
    3.2050   -3.9480    4.0100 C   0  0  0  0  0  2  0  0  0  0  0  0
    4.1200   -4.2180    2.8170 C   0  0  0  0  0  2  0  0  0  0  0  0
   10.8260   -2.3410   -1.3770 O   0  0  0  0  0  0  0  0  0  0  0  0
   10.9790   -2.9830   -0.2890 C   0  0  0  0  0  0  0  0  0  0  0  0
   12.0910   -3.2390    0.2710 O   0  0  0  0  0  1  0  0  0  0  0  0
    2.4020  -10.3900    1.7610 O   0  0  0  0  0  0  0  0  0  0  0  0
    1.8920  -10.6310    3.0190 C   0  0  0  0  0  0  0  0  0  0  0  0
    1.1420   -9.6430    3.6740 C   0  0  0  0  0  3  0  0  0  0  0  0
    0.5880   -9.9010    4.9250 C   0  0  0  0  0  3  0  0  0  0  0  0
    0.7590  -11.1520    5.5130 C   0  0  0  0  0  3  0  0  0  0  0  0
    1.4720  -12.1490    4.8420 C   0  0  0  0  0  3  0  0  0  0  0  0
    2.0440  -11.9150    3.5780 C   0  0  0  0  0  0  0  0  0  0  0  0
    2.7600  -13.0000    2.8860 C   0  0  0  0  0  0  0  0  0  0  0  0
    2.0910  -13.8800    2.0200 C   0  0  0  0  0  3  0  0  0  0  0  0
    2.7760  -14.9080    1.3690 C   0  0  0  0  0  3  0  0  0  0  0  0
    4.1450  -15.0710    1.5710 C   0  0  0  0  0  3  0  0  0  0  0  0
    4.8280  -14.2080    2.4230 C   0  0  0  0  0  3  0  0  0  0  0  0
    4.1410  -13.1800    3.0730 C   0  0  0  0  0  3  0  0  0  0  0  0
  1  2  1  0  0  0  0
  2  3  2  0  0  0  0
  4 25  1  0  0  0  0
  4  3  1  0  0  0  0
  5  4  2  0  0  0  0
  6  5  1  0  0  0  0
  6  1  2  0  0  0  0
  7  8  1  0  0  0  0
  8  9  2  0  0  0  0
 10  9  1  0  0  0  0
 10 15  1  0  0  0  0
 11 10  2  0  0  0  0
 12  7  2  0  0  0  0
 12 11  1  0  0  0  0
 13 11  1  0  0  0  0
 13 14  2  0  0  0  0
 14  1  1  0  0  0  0
 14 15  1  0  0  0  0
 15 16  1  0  0  0  0
 16 17  1  0  0  0  0
 17 18  1  0  0  0  0
 19 18  1  0  0  0  0
 20 19  1  0  0  0  0
 21 16  1  0  0  0  0
 21 20  1  0  0  0  0
 22 23  2  0  0  0  0
 23 24  1  0  0  0  0
 23  7  1  0  0  0  0
 25 26  1  0  0  0  0
 26 31  2  0  0  0  0
 26 27  1  0  0  0  0
 27 28  2  0  0  0  0
 28 29  1  0  0  0  0
 30 29  2  0  0  0  0
 31 30  1  0  0  0  0
 32 37  1  0  0  0  0
 32 31  1  0  0  0  0
 33 32  2  0  0  0  0
 34 35  2  0  0  0  0
 34 33  1  0  0  0  0
 35 36  1  0  0  0  0
 36 37  2  0  0  0  0
M  END
>  <minimizedAffinity>
-8.04749107

$$$$

 OpenBabel09122221183D

 37 42  0  0  0  0  0  0  0  0999 V2000
    5.4050   -7.1870    1.4490 C   0  0  0  0  0  0  0  0  0  0  0  0
    4.3390   -7.3210    0.5500 C   0  0  0  0  0  3  0  0  0  0  0  0
    3.4020   -8.3470    0.7100 C   0  0  0  0  0  3  0  0  0  0  0  0
    3.5300   -9.2650    1.7540 C   0  0  0  0  0  0  0  0  0  0  0  0
    4.6270   -9.1810    2.6140 C   0  0  0  0  0  3  0  0  0  0  0  0
    5.5540   -8.1430    2.4630 C   0  0  0  0  0  3  0  0  0  0  0  0
    9.7860   -3.2730    0.2570 C   0  0  0  0  0  0  0  0  0  0  0  0
    9.1980   -2.5200    1.2860 C   0  0  0  0  0  3  0  0  0  0  0  0
    8.0740   -2.9680    1.9920 C   0  0  0  0  0  3  0  0  0  0  0  0
    7.5410   -4.2140    1.6380 C   0  0  0  0  0  0  0  0  0  0  0  0
    8.0900   -4.9830    0.6150 C   0  0  0  0  0  0  0  0  0  0  0  0
    9.2180   -4.5170   -0.0800 C   0  0  0  0  0  3  0  0  0  0  0  0
    7.3880   -6.1480    0.4520 N   0  0  0  0  0  0  0  0  0  0  0  0
    6.3990   -6.1160    1.3250 C   0  0  0  0  0  0  0  0  0  0  0  0
    6.4910   -4.9770    2.1150 N   0  0  0  0  0  0  0  0  0  0  0  0
    5.6710   -4.6730    3.2850 C   0  0  0  0  0  3  0  0  0  0  0  0
    6.3700   -3.7520    4.3000 C   0  0  0  0  0  2  0  0  0  0  0  0
    5.4920   -3.5160    5.5280 C   0  0  0  0  0  2  0  0  0  0  0  0
    4.1110   -2.9910    5.1410 C   0  0  0  0  0  2  0  0  0  0  0  0
    3.4150   -3.9140    4.1440 C   0  0  0  0  0  2  0  0  0  0  0  0
    4.2740   -4.1550    2.9050 C   0  0  0  0  0  2  0  0  0  0  0  0
   12.1430   -3.0350    0.0250 O   0  0  0  0  0  1  0  0  0  0  0  0
   11.0080   -2.7540   -0.4760 C   0  0  0  0  0  0  0  0  0  0  0  0
   10.8100   -2.0810   -1.5360 O   0  0  0  0  0  0  0  0  0  0  0  0
    2.5590  -10.2430    1.8010 O   0  0  0  0  0  0  0  0  0  0  0  0
    2.7280  -11.3050    2.6640 C   0  0  0  0  0  0  0  0  0  0  0  0
    3.5620  -12.3750    2.3050 C   0  0  0  0  0  3  0  0  0  0  0  0
    3.7700  -13.4260    3.1940 C   0  0  0  0  0  3  0  0  0  0  0  0
    3.1690  -13.4000    4.4510 C   0  0  0  0  0  3  0  0  0  0  0  0
    2.3710  -12.3150    4.8230 C   0  0  0  0  0  3  0  0  0  0  0  0
    2.1420  -11.2400    3.9430 C   0  0  0  0  0  0  0  0  0  0  0  0
    1.3240  -10.0970    4.3820 C   0  0  0  0  0  0  0  0  0  0  0  0
   -0.0490  -10.0300    4.0960 C   0  0  0  0  0  3  0  0  0  0  0  0
   -0.8180   -8.9410    4.5130 C   0  0  0  0  0  3  0  0  0  0  0  0
   -0.2260   -7.9020    5.2290 C   0  0  0  0  0  3  0  0  0  0  0  0
    1.1330   -7.9510    5.5260 C   0  0  0  0  0  3  0  0  0  0  0  0
    1.9010   -9.0400    5.1080 C   0  0  0  0  0  3  0  0  0  0  0  0
  1  6  1  0  0  0  0
  2  3  1  0  0  0  0
  2  1  2  0  0  0  0
  3  4  2  0  0  0  0
  4 25  1  0  0  0  0
  4  5  1  0  0  0  0
  6  5  2  0  0  0  0
  7  8  1  0  0  0  0
  8  9  2  0  0  0  0
 10  9  1  0  0  0  0
 10 15  1  0  0  0  0
 11 10  2  0  0  0  0
 12  7  2  0  0  0  0
 12 11  1  0  0  0  0
 13 11  1  0  0  0  0
 13 14  2  0  0  0  0
 14  1  1  0  0  0  0
 14 15  1  0  0  0  0
 15 16  1  0  0  0  0
 16 17  1  0  0  0  0
 17 18  1  0  0  0  0
 19 18  1  0  0  0  0
 20 19  1  0  0  0  0
 21 16  1  0  0  0  0
 21 20  1  0  0  0  0
 23 22  1  0  0  0  0
 23  7  1  0  0  0  0
 24 23  2  0  0  0  0
 25 26  1  0  0  0  0
 26 31  1  0  0  0  0
 27 26  2  0  0  0  0
 27 28  1  0  0  0  0
 28 29  2  0  0  0  0
 29 30  1  0  0  0  0
 31 32  1  0  0  0  0
 31 30  2  0  0  0  0
 32 37  1  0  0  0  0
 33 32  2  0  0  0  0
 33 34  1  0  0  0  0
 34 35  2  0  0  0  0
 35 36  1  0  0  0  0
 37 36  2  0  0  0  0
M  END
>  <minimizedAffinity>
-8.01288891

$$$$

 OpenBabel09122221183D

 37 42  0  0  0  0  0  0  0  0999 V2000
    9.2450   -1.0210    2.7890 C   0  0  0  0  0  0  0  0  0  0  0  0
    9.8020   -0.9460    4.0720 C   0  0  0  0  0  3  0  0  0  0  0  0
   10.2240    0.2820    4.5910 C   0  0  0  0  0  3  0  0  0  0  0  0
   10.1170    1.4460    3.8280 C   0  0  0  0  0  0  0  0  0  0  0  0
    9.6260    1.3710    2.5230 C   0  0  0  0  0  3  0  0  0  0  0  0
    9.1880    0.1440    2.0120 C   0  0  0  0  0  3  0  0  0  0  0  0
    6.7200   -6.1850    1.0870 C   0  0  0  0  0  0  0  0  0  0  0  0
    7.6420   -6.1220    0.0290 C   0  0  0  0  0  3  0  0  0  0  0  0
    8.5640   -5.0750   -0.0960 C   0  0  0  0  0  3  0  0  0  0  0  0
    8.5440   -4.0720    0.8820 C   0  0  0  0  0  0  0  0  0  0  0  0
    7.6370   -4.0960    1.9380 C   0  0  0  0  0  0  0  0  0  0  0  0
    6.7220   -5.1550    2.0480 C   0  0  0  0  0  3  0  0  0  0  0  0
    7.8070   -3.0050    2.7500 N   0  0  0  0  0  0  0  0  0  0  0  0
    8.7770   -2.2870    2.2160 C   0  0  0  0  0  0  0  0  0  0  0  0
    9.2990   -2.9350    1.1040 N   0  0  0  0  0  0  0  0  0  0  0  0
   10.4790   -2.5260    0.3460 C   0  0  0  0  0  3  0  0  0  0  0  0
   11.4460   -3.6860    0.0460 C   0  0  0  0  0  2  0  0  0  0  0  0
   12.6880   -3.1920   -0.6950 C   0  0  0  0  0  2  0  0  0  0  0  0
   12.3200   -2.4180   -1.9590 C   0  0  0  0  0  2  0  0  0  0  0  0
   11.3710   -1.2610   -1.6560 C   0  0  0  0  0  2  0  0  0  0  0  0
   10.1190   -1.7360   -0.9220 C   0  0  0  0  0  2  0  0  0  0  0  0
    5.7870   -8.0380    2.2540 O   0  0  0  0  0  1  0  0  0  0  0  0
    5.7450   -7.3410    1.1900 C   0  0  0  0  0  0  0  0  0  0  0  0
    4.9550   -7.5270    0.2110 O   0  0  0  0  0  0  0  0  0  0  0  0
   10.5820    2.5940    4.4350 O   0  0  0  0  0  0  0  0  0  0  0  0
   11.9400    2.8300    4.4550 C   0  0  0  0  0  0  0  0  0  0  0  0
   12.7160    2.3790    5.5320 C   0  0  0  0  0  3  0  0  0  0  0  0
   14.0940    2.5770    5.5320 C   0  0  0  0  0  3  0  0  0  0  0  0
   14.7040    3.2010    4.4460 C   0  0  0  0  0  3  0  0  0  0  0  0
   13.9350    3.6150    3.3540 C   0  0  0  0  0  3  0  0  0  0  0  0
   12.5400    3.4290    3.3300 C   0  0  0  0  0  0  0  0  0  0  0  0
   11.7670    3.8460    2.1480 C   0  0  0  0  0  0  0  0  0  0  0  0
   11.9850    3.2630    0.8900 C   0  0  0  0  0  3  0  0  0  0  0  0
   11.2490    3.6660   -0.2270 C   0  0  0  0  0  3  0  0  0  0  0  0
   10.2790    4.6580   -0.1030 C   0  0  0  0  0  3  0  0  0  0  0  0
   10.0450    5.2470    1.1370 C   0  0  0  0  0  3  0  0  0  0  0  0
   10.7820    4.8430    2.2530 C   0  0  0  0  0  3  0  0  0  0  0  0
  1  2  1  0  0  0  0
  2  3  2  0  0  0  0
  4 25  1  0  0  0  0
  4  3  1  0  0  0  0
  5  4  2  0  0  0  0
  6  5  1  0  0  0  0
  6  1  2  0  0  0  0
  7 23  1  0  0  0  0
  7 12  1  0  0  0  0
  8  7  2  0  0  0  0
  9  8  1  0  0  0  0
  9 10  2  0  0  0  0
 10 15  1  0  0  0  0
 10 11  1  0  0  0  0
 11 12  2  0  0  0  0
 11 13  1  0  0  0  0
 14 13  2  0  0  0  0
 14  1  1  0  0  0  0
 15 14  1  0  0  0  0
 16 15  1  0  0  0  0
 17 16  1  0  0  0  0
 18 17  1  0  0  0  0
 19 20  1  0  0  0  0
 19 18  1  0  0  0  0
 20 21  1  0  0  0  0
 21 16  1  0  0  0  0
 23 22  1  0  0  0  0
 24 23  2  0  0  0  0
 25 26  1  0  0  0  0
 26 27  1  0  0  0  0
 27 28  2  0  0  0  0
 29 28  1  0  0  0  0
 30 29  2  0  0  0  0
 31 30  1  0  0  0  0
 31 26  2  0  0  0  0
 32 37  1  0  0  0  0
 32 31  1  0  0  0  0
 33 32  2  0  0  0  0
 34 35  2  0  0  0  0
 34 33  1  0  0  0  0
 35 36  1  0  0  0  0
 36 37  2  0  0  0  0
M  END
>  <minimizedAffinity>
-7.61592436

$$$$

 OpenBabel09122221183D

 37 42  0  0  0  0  0  0  0  0999 V2000
    7.6700   -4.8640    1.2780 C   0  0  0  0  0  0  0  0  0  0  0  0
    8.0300   -3.8700    2.1960 C   0  0  0  0  0  3  0  0  0  0  0  0
    9.0210   -2.9360    1.8770 C   0  0  0  0  0  3  0  0  0  0  0  0
    9.6800   -2.9970    0.6480 C   0  0  0  0  0  0  0  0  0  0  0  0
    9.3770   -4.0260   -0.2450 C   0  0  0  0  0  3  0  0  0  0  0  0
    8.3720   -4.9480    0.0680 C   0  0  0  0  0  3  0  0  0  0  0  0
    3.8130   -9.4140    1.8760 C   0  0  0  0  0  0  0  0  0  0  0  0
    3.2390   -8.6090    2.8730 C   0  0  0  0  0  3  0  0  0  0  0  0
    3.7400   -7.3390    3.1890 C   0  0  0  0  0  3  0  0  0  0  0  0
    4.8520   -6.8840    2.4680 C   0  0  0  0  0  0  0  0  0  0  0  0
    5.4540   -7.6590    1.4820 C   0  0  0  0  0  0  0  0  0  0  0  0
    4.9360   -8.9280    1.1780 C   0  0  0  0  0  3  0  0  0  0  0  0
    6.5250   -7.0030    0.9330 N   0  0  0  0  0  0  0  0  0  0  0  0
    6.6260   -5.8510    1.5690 C   0  0  0  0  0  0  0  0  0  0  0  0
    5.5820   -5.7100    2.4760 N   0  0  0  0  0  0  0  0  0  0  0  0
    5.2710   -4.5090    3.2480 C   0  0  0  0  0  3  0  0  0  0  0  0
    3.8880   -3.9160    2.9250 C   0  0  0  0  0  2  0  0  0  0  0  0
    3.6400   -2.6310    3.7150 C   0  0  0  0  0  2  0  0  0  0  0  0
    3.8310   -2.8470    5.2150 C   0  0  0  0  0  2  0  0  0  0  0  0
    5.2080   -3.4230    5.5320 C   0  0  0  0  0  2  0  0  0  0  0  0
    5.4710   -4.7130    4.7580 C   0  0  0  0  0  2  0  0  0  0  0  0
    2.6590  -11.3960    2.5120 O   0  0  0  0  0  1  0  0  0  0  0  0
    3.2330  -10.7790    1.5600 C   0  0  0  0  0  0  0  0  0  0  0  0
    3.3600  -11.2040    0.3690 O   0  0  0  0  0  0  0  0  0  0  0  0
   10.6510   -2.0360    0.4520 O   0  0  0  0  0  0  0  0  0  0  0  0
   10.7980   -1.4900   -0.8060 C   0  0  0  0  0  0  0  0  0  0  0  0
    9.7710   -0.7110   -1.3580 C   0  0  0  0  0  3  0  0  0  0  0  0
    9.9360   -0.1210   -2.6080 C   0  0  0  0  0  3  0  0  0  0  0  0
   11.1340   -0.2870   -3.2990 C   0  0  0  0  0  3  0  0  0  0  0  0
   12.1720   -1.0310   -2.7310 C   0  0  0  0  0  3  0  0  0  0  0  0
   12.0310   -1.6380   -1.4700 C   0  0  0  0  0  0  0  0  0  0  0  0
   13.1590   -2.3860   -0.8870 C   0  0  0  0  0  0  0  0  0  0  0  0
   14.4210   -2.3980   -1.5010 C   0  0  0  0  0  3  0  0  0  0  0  0
   15.4850   -3.1110   -0.9440 C   0  0  0  0  0  3  0  0  0  0  0  0
   15.3040   -3.8220    0.2410 C   0  0  0  0  0  3  0  0  0  0  0  0
   14.0610   -3.8200    0.8680 C   0  0  0  0  0  3  0  0  0  0  0  0
   12.9980   -3.1070    0.3090 C   0  0  0  0  0  3  0  0  0  0  0  0
  1 14  1  0  0  0  0
  1  2  1  0  0  0  0
  3  2  2  0  0  0  0
  4  3  1  0  0  0  0
  5  6  1  0  0  0  0
  5  4  2  0  0  0  0
  6  1  2  0  0  0  0
  7  8  1  0  0  0  0
  8  9  2  0  0  0  0
 10 15  1  0  0  0  0
 10  9  1  0  0  0  0
 11 10  2  0  0  0  0
 12 11  1  0  0  0  0
 12  7  2  0  0  0  0
 13 11  1  0  0  0  0
 13 14  2  0  0  0  0
 14 15  1  0  0  0  0
 15 16  1  0  0  0  0
 16 21  1  0  0  0  0
 17 16  1  0  0  0  0
 17 18  1  0  0  0  0
 18 19  1  0  0  0  0
 19 20  1  0  0  0  0
 21 20  1  0  0  0  0
 23  7  1  0  0  0  0
 23 22  1  0  0  0  0
 24 23  2  0  0  0  0
 25  4  1  0  0  0  0
 26 25  1  0  0  0  0
 27 26  1  0  0  0  0
 28 27  2  0  0  0  0
 29 30  2  0  0  0  0
 29 28  1  0  0  0  0
 30 31  1  0  0  0  0
 31 32  1  0  0  0  0
 31 26  2  0  0  0  0
 32 37  1  0  0  0  0
 33 34  1  0  0  0  0
 33 32  2  0  0  0  0
 34 35  2  0  0  0  0
 35 36  1  0  0  0  0
 37 36  2  0  0  0  0
M  END
>  <minimizedAffinity>
-7.29551125

$$$$

 OpenBabel09122221183D

 37 42  0  0  0  0  0  0  0  0999 V2000
    5.9340   -7.5090    1.9290 C   0  0  0  0  0  0  0  0  0  0  0  0
    4.6470   -7.6720    1.4030 C   0  0  0  0  0  3  0  0  0  0  0  0
    3.8950   -8.8120    1.7070 C   0  0  0  0  0  3  0  0  0  0  0  0
    4.4290   -9.8140    2.5200 C   0  0  0  0  0  0  0  0  0  0  0  0
    5.7370   -9.6920    2.9930 C   0  0  0  0  0  3  0  0  0  0  0  0
    6.4800   -8.5430    2.7030 C   0  0  0  0  0  3  0  0  0  0  0  0
    9.6680   -3.1600    0.1740 C   0  0  0  0  0  0  0  0  0  0  0  0
    8.9320   -2.3640    1.0670 C   0  0  0  0  0  3  0  0  0  0  0  0
    7.8710   -2.8770    1.8240 C   0  0  0  0  0  3  0  0  0  0  0  0
    7.5580   -4.2330    1.6660 C   0  0  0  0  0  0  0  0  0  0  0  0
    8.2580   -5.0500    0.7830 C   0  0  0  0  0  0  0  0  0  0  0  0
    9.3190   -4.5180    0.0330 C   0  0  0  0  0  3  0  0  0  0  0  0
    7.7580   -6.3260    0.7980 N   0  0  0  0  0  0  0  0  0  0  0  0
    6.7470   -6.3220    1.6460 C   0  0  0  0  0  0  0  0  0  0  0  0
    6.6280   -5.0750    2.2480 N   0  0  0  0  0  0  0  0  0  0  0  0
    5.7290   -4.7340    3.3480 C   0  0  0  0  0  3  0  0  0  0  0  0
    6.3560   -3.7730    4.3740 C   0  0  0  0  0  2  0  0  0  0  0  0
    5.3960   -3.4980    5.5310 C   0  0  0  0  0  2  0  0  0  0  0  0
    4.0430   -2.9940    5.0330 C   0  0  0  0  0  2  0  0  0  0  0  0
    3.4190   -3.9560    4.0260 C   0  0  0  0  0  2  0  0  0  0  0  0
    4.3600   -4.2370    2.8570 C   0  0  0  0  0  2  0  0  0  0  0  0
   10.5110   -1.7880   -1.5780 O   0  0  0  0  0  0  0  0  0  0  0  0
   10.8150   -2.5670   -0.6200 C   0  0  0  0  0  0  0  0  0  0  0  0
   11.9940   -2.8890   -0.2700 O   0  0  0  0  0  1  0  0  0  0  0  0
    3.6040  -10.8980    2.7360 O   0  0  0  0  0  0  0  0  0  0  0  0
    3.0640  -11.5470    1.6470 C   0  0  0  0  0  0  0  0  0  0  0  0
    3.7830  -11.6170    0.4440 C   0  0  0  0  0  3  0  0  0  0  0  0
    3.2590  -12.3120   -0.6440 C   0  0  0  0  0  3  0  0  0  0  0  0
    2.0300  -12.9580   -0.5260 C   0  0  0  0  0  3  0  0  0  0  0  0
    1.3330  -12.9210    0.6850 C   0  0  0  0  0  3  0  0  0  0  0  0
    1.8390  -12.2260    1.7990 C   0  0  0  0  0  0  0  0  0  0  0  0
    1.0940  -12.2370    3.0690 C   0  0  0  0  0  0  0  0  0  0  0  0
    1.2530  -13.2760    4.0000 C   0  0  0  0  0  3  0  0  0  0  0  0
    0.5410  -13.2810    5.2010 C   0  0  0  0  0  3  0  0  0  0  0  0
   -0.3420  -12.2430    5.4940 C   0  0  0  0  0  3  0  0  0  0  0  0
   -0.5120  -11.2020    4.5860 C   0  0  0  0  0  3  0  0  0  0  0  0
    0.2010  -11.1980    3.3850 C   0  0  0  0  0  3  0  0  0  0  0  0
  1  6  1  0  0  0  0
  2  3  1  0  0  0  0
  2  1  2  0  0  0  0
  3  4  2  0  0  0  0
  4 25  1  0  0  0  0
  4  5  1  0  0  0  0
  6  5  2  0  0  0  0
  7  8  1  0  0  0  0
  8  9  2  0  0  0  0
 10  9  1  0  0  0  0
 10 15  1  0  0  0  0
 11 13  1  0  0  0  0
 11 10  2  0  0  0  0
 12  7  2  0  0  0  0
 12 11  1  0  0  0  0
 13 14  2  0  0  0  0
 14  1  1  0  0  0  0
 14 15  1  0  0  0  0
 15 16  1  0  0  0  0
 16 17  1  0  0  0  0
 17 18  1  0  0  0  0
 19 18  1  0  0  0  0
 20 19  1  0  0  0  0
 21 16  1  0  0  0  0
 21 20  1  0  0  0  0
 22 23  2  0  0  0  0
 23 24  1  0  0  0  0
 23  7  1  0  0  0  0
 26 31  1  0  0  0  0
 26 25  1  0  0  0  0
 27 26  2  0  0  0  0
 28 29  2  0  0  0  0
 28 27  1  0  0  0  0
 29 30  1  0  0  0  0
 30 31  2  0  0  0  0
 31 32  1  0  0  0  0
 32 37  2  0  0  0  0
 32 33  1  0  0  0  0
 33 34  2  0  0  0  0
 34 35  1  0  0  0  0
 36 35  2  0  0  0  0
 37 36  1  0  0  0  0
M  END
>  <minimizedAffinity>
-7.28247643

$$$$
