
 OpenBabel09122222393D

 37 42  0  0  0  0  0  0  0  0999 V2000
    7.6700   -4.8640    1.2780 C   0  0  0  0  0  0  0  0  0  0  0  0
    8.0300   -3.8700    2.1960 C   0  0  0  0  0  3  0  0  0  0  0  0
    9.0210   -2.9360    1.8770 C   0  0  0  0  0  3  0  0  0  0  0  0
    9.6800   -2.9970    0.6480 C   0  0  0  0  0  0  0  0  0  0  0  0
    9.3770   -4.0260   -0.2450 C   0  0  0  0  0  3  0  0  0  0  0  0
    8.3720   -4.9480    0.0680 C   0  0  0  0  0  3  0  0  0  0  0  0
    3.8130   -9.4140    1.8760 C   0  0  0  0  0  0  0  0  0  0  0  0
    3.2390   -8.6090    2.8730 C   0  0  0  0  0  3  0  0  0  0  0  0
    3.7400   -7.3390    3.1890 C   0  0  0  0  0  3  0  0  0  0  0  0
    4.8520   -6.8840    2.4680 C   0  0  0  0  0  0  0  0  0  0  0  0
    5.4540   -7.6590    1.4820 C   0  0  0  0  0  0  0  0  0  0  0  0
    4.9360   -8.9280    1.1780 C   0  0  0  0  0  3  0  0  0  0  0  0
    6.5250   -7.0030    0.9330 N   0  0  0  0  0  0  0  0  0  0  0  0
    6.6260   -5.8510    1.5690 C   0  0  0  0  0  0  0  0  0  0  0  0
    5.5820   -5.7100    2.4760 N   0  0  0  0  0  0  0  0  0  0  0  0
    5.2710   -4.5090    3.2480 C   0  0  0  0  0  3  0  0  0  0  0  0
    3.8880   -3.9160    2.9250 C   0  0  0  0  0  2  0  0  0  0  0  0
    3.6400   -2.6310    3.7150 C   0  0  0  0  0  2  0  0  0  0  0  0
    3.8310   -2.8470    5.2150 C   0  0  0  0  0  2  0  0  0  0  0  0
    5.2080   -3.4230    5.5320 C   0  0  0  0  0  2  0  0  0  0  0  0
    5.4710   -4.7130    4.7580 C   0  0  0  0  0  2  0  0  0  0  0  0
    2.6590  -11.3960    2.5120 O   0  0  0  0  0  1  0  0  0  0  0  0
    3.2330  -10.7790    1.5600 C   0  0  0  0  0  0  0  0  0  0  0  0
    3.3600  -11.2040    0.3690 O   0  0  0  0  0  0  0  0  0  0  0  0
   10.6510   -2.0360    0.4520 O   0  0  0  0  0  0  0  0  0  0  0  0
   10.7980   -1.4900   -0.8060 C   0  0  0  0  0  0  0  0  0  0  0  0
    9.7710   -0.7110   -1.3580 C   0  0  0  0  0  3  0  0  0  0  0  0
    9.9360   -0.1210   -2.6080 C   0  0  0  0  0  3  0  0  0  0  0  0
   11.1340   -0.2870   -3.2990 C   0  0  0  0  0  3  0  0  0  0  0  0
   12.1720   -1.0310   -2.7310 C   0  0  0  0  0  3  0  0  0  0  0  0
   12.0310   -1.6380   -1.4700 C   0  0  0  0  0  0  0  0  0  0  0  0
   13.1590   -2.3860   -0.8870 C   0  0  0  0  0  0  0  0  0  0  0  0
   14.4210   -2.3980   -1.5010 C   0  0  0  0  0  3  0  0  0  0  0  0
   15.4850   -3.1110   -0.9440 C   0  0  0  0  0  3  0  0  0  0  0  0
   15.3040   -3.8220    0.2410 C   0  0  0  0  0  3  0  0  0  0  0  0
   14.0610   -3.8200    0.8680 C   0  0  0  0  0  3  0  0  0  0  0  0
   12.9980   -3.1070    0.3090 C   0  0  0  0  0  3  0  0  0  0  0  0
  1 14  1  0  0  0  0
  1  2  1  0  0  0  0
  3  2  2  0  0  0  0
  4  3  1  0  0  0  0
  5  6  1  0  0  0  0
  5  4  2  0  0  0  0
  6  1  2  0  0  0  0
  7  8  1  0  0  0  0
  8  9  2  0  0  0  0
 10 15  1  0  0  0  0
 10  9  1  0  0  0  0
 11 10  2  0  0  0  0
 12 11  1  0  0  0  0
 12  7  2  0  0  0  0
 13 11  1  0  0  0  0
 13 14  2  0  0  0  0
 14 15  1  0  0  0  0
 15 16  1  0  0  0  0
 16 21  1  0  0  0  0
 17 16  1  0  0  0  0
 17 18  1  0  0  0  0
 18 19  1  0  0  0  0
 19 20  1  0  0  0  0
 21 20  1  0  0  0  0
 23  7  1  0  0  0  0
 23 22  1  0  0  0  0
 24 23  2  0  0  0  0
 25  4  1  0  0  0  0
 26 25  1  0  0  0  0
 27 26  1  0  0  0  0
 28 27  2  0  0  0  0
 29 30  2  0  0  0  0
 29 28  1  0  0  0  0
 30 31  1  0  0  0  0
 31 32  1  0  0  0  0
 31 26  2  0  0  0  0
 32 37  1  0  0  0  0
 33 34  1  0  0  0  0
 33 32  2  0  0  0  0
 34 35  2  0  0  0  0
 35 36  1  0  0  0  0
 37 36  2  0  0  0  0
M  END
>  <minimizedAffinity>
-7.29551125

$$$$
