
 OpenBabel09122222393D

 37 42  0  0  0  0  0  0  0  0999 V2000
    5.2690   -7.3470    1.4700 C   0  0  0  0  0  0  0  0  0  0  0  0
    5.3290   -8.3360    2.4590 C   0  0  0  0  0  3  0  0  0  0  0  0
    4.3600   -9.3430    2.5150 C   0  0  0  0  0  3  0  0  0  0  0  0
    3.3070   -9.3610    1.5980 C   0  0  0  0  0  0  0  0  0  0  0  0
    3.2010   -8.3410    0.6510 C   0  0  0  0  0  3  0  0  0  0  0  0
    4.1810   -7.3450    0.5860 C   0  0  0  0  0  3  0  0  0  0  0  0
    9.7230   -3.4800    0.3990 C   0  0  0  0  0  0  0  0  0  0  0  0
    9.0950   -2.7040    1.3860 C   0  0  0  0  0  3  0  0  0  0  0  0
    7.9380   -3.1330    2.0500 C   0  0  0  0  0  3  0  0  0  0  0  0
    7.4140   -4.3830    1.6970 C   0  0  0  0  0  0  0  0  0  0  0  0
    8.0020   -5.1740    0.7140 C   0  0  0  0  0  0  0  0  0  0  0  0
    9.1630   -4.7280    0.0610 C   0  0  0  0  0  3  0  0  0  0  0  0
    7.3010   -6.3380    0.5420 N   0  0  0  0  0  0  0  0  0  0  0  0
    6.2740   -6.2840    1.3690 C   0  0  0  0  0  0  0  0  0  0  0  0
    6.3390   -5.1300    2.1410 N   0  0  0  0  0  0  0  0  0  0  0  0
    5.4690   -4.8000    3.2670 C   0  0  0  0  0  3  0  0  0  0  0  0
    6.1520   -3.9170    4.3280 C   0  0  0  0  0  2  0  0  0  0  0  0
    5.2180   -3.6520    5.5090 C   0  0  0  0  0  2  0  0  0  0  0  0
    3.8850   -3.0640    5.0530 C   0  0  0  0  0  2  0  0  0  0  0  0
    3.2050   -3.9480    4.0100 C   0  0  0  0  0  2  0  0  0  0  0  0
    4.1200   -4.2180    2.8170 C   0  0  0  0  0  2  0  0  0  0  0  0
   10.8260   -2.3410   -1.3770 O   0  0  0  0  0  0  0  0  0  0  0  0
   10.9790   -2.9830   -0.2890 C   0  0  0  0  0  0  0  0  0  0  0  0
   12.0910   -3.2390    0.2710 O   0  0  0  0  0  1  0  0  0  0  0  0
    2.4020  -10.3900    1.7610 O   0  0  0  0  0  0  0  0  0  0  0  0
    1.8920  -10.6310    3.0190 C   0  0  0  0  0  0  0  0  0  0  0  0
    1.1420   -9.6430    3.6740 C   0  0  0  0  0  3  0  0  0  0  0  0
    0.5880   -9.9010    4.9250 C   0  0  0  0  0  3  0  0  0  0  0  0
    0.7590  -11.1520    5.5130 C   0  0  0  0  0  3  0  0  0  0  0  0
    1.4720  -12.1490    4.8420 C   0  0  0  0  0  3  0  0  0  0  0  0
    2.0440  -11.9150    3.5780 C   0  0  0  0  0  0  0  0  0  0  0  0
    2.7600  -13.0000    2.8860 C   0  0  0  0  0  0  0  0  0  0  0  0
    2.0910  -13.8800    2.0200 C   0  0  0  0  0  3  0  0  0  0  0  0
    2.7760  -14.9080    1.3690 C   0  0  0  0  0  3  0  0  0  0  0  0
    4.1450  -15.0710    1.5710 C   0  0  0  0  0  3  0  0  0  0  0  0
    4.8280  -14.2080    2.4230 C   0  0  0  0  0  3  0  0  0  0  0  0
    4.1410  -13.1800    3.0730 C   0  0  0  0  0  3  0  0  0  0  0  0
  1  2  1  0  0  0  0
  2  3  2  0  0  0  0
  4 25  1  0  0  0  0
  4  3  1  0  0  0  0
  5  4  2  0  0  0  0
  6  5  1  0  0  0  0
  6  1  2  0  0  0  0
  7  8  1  0  0  0  0
  8  9  2  0  0  0  0
 10  9  1  0  0  0  0
 10 15  1  0  0  0  0
 11 10  2  0  0  0  0
 12  7  2  0  0  0  0
 12 11  1  0  0  0  0
 13 11  1  0  0  0  0
 13 14  2  0  0  0  0
 14  1  1  0  0  0  0
 14 15  1  0  0  0  0
 15 16  1  0  0  0  0
 16 17  1  0  0  0  0
 17 18  1  0  0  0  0
 19 18  1  0  0  0  0
 20 19  1  0  0  0  0
 21 16  1  0  0  0  0
 21 20  1  0  0  0  0
 22 23  2  0  0  0  0
 23 24  1  0  0  0  0
 23  7  1  0  0  0  0
 25 26  1  0  0  0  0
 26 31  2  0  0  0  0
 26 27  1  0  0  0  0
 27 28  2  0  0  0  0
 28 29  1  0  0  0  0
 30 29  2  0  0  0  0
 31 30  1  0  0  0  0
 32 37  1  0  0  0  0
 32 31  1  0  0  0  0
 33 32  2  0  0  0  0
 34 35  2  0  0  0  0
 34 33  1  0  0  0  0
 35 36  1  0  0  0  0
 36 37  2  0  0  0  0
M  END
>  <minimizedAffinity>
-8.04749107

$$$$
