
 OpenBabel08192222473D

 28 29  0  0  1  0  0  0  0  0999 V2000
   10.0250   31.5210  -17.8290 C   0  0  0  0  0  0  0  0  0  0  0  0
   10.2540   31.1890  -16.6590 O   0  0  0  0  0  0  0  0  0  0  0  0
   10.9620   31.3280  -18.8740 N   0  0  0  0  0  0  0  0  0  0  0  0
    4.2790   32.5110  -18.0480 C   0  0  0  0  0  1  0  0  0  0  0  0
    5.6920   32.0720  -17.6650 C   0  0  2  0  0  3  0  0  0  0  0  0
    6.5940   33.2940  -17.4520 C   0  0  0  0  0  2  0  0  0  0  0  0
    8.0260   32.8810  -17.1260 C   0  0  0  0  0  2  0  0  0  0  0  0
    8.6080   31.9730  -18.2170 C   0  0  2  0  0  3  0  0  0  0  0  0
    7.7190   30.7360  -18.4090 C   0  0  0  0  0  2  0  0  0  0  0  0
    6.2780   31.1330  -18.7290 C   0  0  0  0  0  2  0  0  0  0  0  0
   11.0500   32.1860  -20.0150 C   0  0  0  0  0  0  0  0  0  0  0  0
   11.0470   33.6310  -19.8880 C   0  0  0  0  0  3  0  0  0  0  0  0
   11.0320   34.3040  -21.0840 C   0  0  0  0  0  0  0  0  0  0  0  0
   11.1610   33.2420  -22.3890 S   0  0  0  0  0  0  0  0  0  0  0  0
   11.2140   31.8510  -21.3640 C   0  0  0  0  0  0  0  0  0  0  0  0
   11.3700   30.5040  -21.9810 C   0  0  0  0  0  0  0  0  0  0  0  0
   10.5010   30.1020  -22.8010 O   0  0  0  0  0  0  0  0  0  0  0  0
   12.4180   29.8650  -21.6440 O   0  0  0  0  0  1  0  0  0  0  0  0
   10.9050   35.7170  -21.2200 C   0  0  0  0  0  0  0  0  0  0  0  0
   10.7500   36.9040  -21.3210 C   0  0  0  0  0  0  0  0  0  0  0  0
   10.5160   38.3580  -21.4550 C   0  0  0  0  0  0  0  0  0  0  0  0
    9.6530   38.8440  -20.2820 C   0  0  0  0  0  1  0  0  0  0  0  0
   11.8610   39.0960  -21.4450 C   0  0  0  0  0  1  0  0  0  0  0  0
    9.7870   38.6350  -22.7770 C   0  0  0  0  0  1  0  0  0  0  0  0
   11.9850   30.3360  -18.6350 N   0  0  0  0  0  4  0  0  0  0  0  0
   13.0240   30.8730  -17.7340 C   0  0  0  0  0  1  0  0  0  0  0  0
   11.3900   29.0140  -18.3060 C   0  0  0  0  0  1  0  0  0  0  0  0
   12.4360   30.1420  -19.5640 H   0  0  0  0  0  0  0  0  0  0  0  0
  1  2  2  0  0  0  0
  3 25  1  0  0  0  0
  3  1  1  0  0  0  0
  5  4  1  6  0  0  0
  5  6  1  0  0  0  0
  6  7  1  0  0  0  0
  8  1  1  1  0  0  0
  8  7  1  0  0  0  0
  9  8  1  0  0  0  0
 10  9  1  0  0  0  0
 10  5  1  0  0  0  0
 11 12  1  0  0  0  0
 11  3  1  0  0  0  0
 13 12  2  0  0  0  0
 14 15  1  0  0  0  0
 14 13  1  0  0  0  0
 15 11  2  0  0  0  0
 16 18  1  0  0  0  0
 16 15  1  0  0  0  0
 17 16  2  0  0  0  0
 19 13  1  0  0  0  0
 20 19  3  0  0  0  0
 21 23  1  0  0  0  0
 21 20  1  0  0  0  0
 21 22  1  0  0  0  0
 24 21  1  0  0  0  0
 25 27  1  0  0  0  0
 25 26  1  0  0  0  0
 28 25  1  0  0  0  0
M  END
>  <minimizedAffinity>
-5.2781992

$$$$
