
 OpenBabel08192222473D

 28 29  0  0  1  0  0  0  0  0999 V2000
  -12.3120   31.5320   -9.7600 C   0  0  0  0  0  0  0  0  0  0  0  0
  -13.1030   30.9920   -8.9770 O   0  0  0  0  0  0  0  0  0  0  0  0
  -12.5880   31.6800  -11.1410 N   0  0  0  0  0  0  0  0  0  0  0  0
   -8.4320   34.2800   -6.3780 C   0  0  0  0  0  1  0  0  0  0  0  0
   -9.6540   33.5560   -6.9410 C   0  0  2  0  0  3  0  0  0  0  0  0
   -9.2690   32.1560   -7.4350 C   0  0  0  0  0  2  0  0  0  0  0  0
  -10.4610   31.4350   -8.0560 C   0  0  0  0  0  2  0  0  0  0  0  0
  -11.0760   32.2530   -9.1990 C   0  0  2  0  0  3  0  0  0  0  0  0
  -11.4880   33.6440   -8.6960 C   0  0  0  0  0  2  0  0  0  0  0  0
  -10.3040   34.3770   -8.0640 C   0  0  0  0  0  2  0  0  0  0  0  0
  -11.5700   31.6940  -12.1460 C   0  0  0  0  0  0  0  0  0  0  0  0
  -10.8250   30.5000  -12.4970 C   0  0  0  0  0  3  0  0  0  0  0  0
   -9.8150   30.7080  -13.4030 C   0  0  0  0  0  0  0  0  0  0  0  0
   -9.8130   32.2990  -13.9660 S   0  0  0  0  0  0  0  0  0  0  0  0
  -11.1600   32.7420  -12.9770 C   0  0  0  0  0  0  0  0  0  0  0  0
  -11.6930   34.1310  -13.0640 C   0  0  0  0  0  0  0  0  0  0  0  0
  -12.0650   34.7100  -12.0080 O   0  0  0  0  0  1  0  0  0  0  0  0
  -11.6980   34.6450  -14.2290 O   0  0  0  0  0  0  0  0  0  0  0  0
   -8.8710   29.7210  -13.8100 C   0  0  0  0  0  0  0  0  0  0  0  0
   -8.0920   28.8950  -14.2000 C   0  0  0  0  0  0  0  0  0  0  0  0
   -7.1590   27.8680  -14.7150 C   0  0  0  0  0  0  0  0  0  0  0  0
   -5.7350   28.1910  -14.2420 C   0  0  0  0  0  1  0  0  0  0  0  0
   -7.5770   26.4890  -14.1900 C   0  0  0  0  0  1  0  0  0  0  0  0
   -7.2010   27.8690  -16.2500 C   0  0  0  0  0  1  0  0  0  0  0  0
  -13.9790   31.6020  -11.5240 N   0  0  0  0  0  4  0  0  0  0  0  0
  -14.6690   32.8720  -11.2210 C   0  0  0  0  0  1  0  0  0  0  0  0
  -14.1340   31.0310  -12.8870 C   0  0  0  0  0  1  0  0  0  0  0  0
  -14.4120   30.8530  -10.9280 H   0  0  0  0  0  0  0  0  0  0  0  0
  1  2  2  0  0  0  0
  3  1  1  0  0  0  0
  5  4  1  6  0  0  0
  6  5  1  0  0  0  0
  7  6  1  0  0  0  0
  8  1  1  1  0  0  0
  8  9  1  0  0  0  0
  8  7  1  0  0  0  0
  9 10  1  0  0  0  0
 10  5  1  0  0  0  0
 11  3  1  0  0  0  0
 12 11  1  0  0  0  0
 13 12  2  0  0  0  0
 14 13  1  0  0  0  0
 14 15  1  0  0  0  0
 15 11  2  0  0  0  0
 16 15  1  0  0  0  0
 16 17  1  0  0  0  0
 18 16  2  0  0  0  0
 19 13  1  0  0  0  0
 20 19  3  0  0  0  0
 21 22  1  0  0  0  0
 21 20  1  0  0  0  0
 21 23  1  0  0  0  0
 24 21  1  0  0  0  0
 25 26  1  0  0  0  0
 25  3  1  0  0  0  0
 25 28  1  0  0  0  0
 27 25  1  0  0  0  0
M  END
>  <minimizedAffinity>
-5.38771534

$$$$
