
 OpenBabel08192222473D

 28 29  0  0  1  0  0  0  0  0999 V2000
  -10.3440   32.3080   58.9860 C   0  0  0  0  0  0  0  0  0  0  0  0
  -10.8250   32.0550   57.8740 O   0  0  0  0  0  0  0  0  0  0  0  0
  -11.0760   32.1490   60.1870 N   0  0  0  0  0  0  0  0  0  0  0  0
   -4.5670   32.5920   58.2170 C   0  0  0  0  0  1  0  0  0  0  0  0
   -6.0630   32.2990   58.1040 C   0  0  2  0  0  3  0  0  0  0  0  0
   -6.8500   33.5990   57.8970 C   0  0  0  0  0  2  0  0  0  0  0  0
   -8.3530   33.3390   57.8410 C   0  0  0  0  0  2  0  0  0  0  0  0
   -8.8420   32.6140   59.1010 C   0  0  2  0  0  3  0  0  0  0  0  0
   -8.0730   31.2990   59.2910 C   0  0  0  0  0  2  0  0  0  0  0  0
   -6.5640   31.5420   59.3430 C   0  0  0  0  0  2  0  0  0  0  0  0
  -10.8600   32.9550   61.3490 C   0  0  0  0  0  0  0  0  0  0  0  0
  -11.0650   34.3910   61.3320 C   0  0  0  0  0  3  0  0  0  0  0  0
  -10.7130   35.0270   62.4960 C   0  0  0  0  0  0  0  0  0  0  0  0
  -10.2610   33.9210   63.6880 S   0  0  0  0  0  0  0  0  0  0  0  0
  -10.5080   32.5650   62.6450 C   0  0  0  0  0  0  0  0  0  0  0  0
  -10.2870   31.1920   63.1810 C   0  0  0  0  0  0  0  0  0  0  0  0
  -11.2560   30.5740   63.6980 O   0  0  0  0  0  1  0  0  0  0  0  0
   -9.1090   30.7300   63.0370 O   0  0  0  0  0  0  0  0  0  0  0  0
  -10.7080   36.4400   62.6820 C   0  0  0  0  0  0  0  0  0  0  0  0
  -10.6600   37.6330   62.8140 C   0  0  0  0  0  0  0  0  0  0  0  0
  -10.5560   39.1000   62.9750 C   0  0  0  0  0  0  0  0  0  0  0  0
   -9.6370   39.6670   61.8840 C   0  0  0  0  0  1  0  0  0  0  0  0
  -11.9500   39.7270   62.8530 C   0  0  0  0  0  1  0  0  0  0  0  0
   -9.9670   39.4180   64.3560 C   0  0  0  0  0  1  0  0  0  0  0  0
  -12.2160   31.2640   60.1240 N   0  0  0  0  0  4  0  0  0  0  0  0
  -11.7920   29.8610   60.3020 C   0  0  0  0  0  1  0  0  0  0  0  0
  -13.3370   31.7650   60.9620 C   0  0  0  0  0  1  0  0  0  0  0  0
  -12.6140   31.3570   59.1570 H   0  0  0  0  0  0  0  0  0  0  0  0
  1  3  1  0  0  0  0
  2  1  2  0  0  0  0
  3 11  1  0  0  0  0
  5  4  1  1  0  0  0
  5 10  1  0  0  0  0
  6  5  1  0  0  0  0
  7  6  1  0  0  0  0
  7  8  1  0  0  0  0
  8  1  1  6  0  0  0
  8  9  1  0  0  0  0
  9 10  1  0  0  0  0
 11 15  2  0  0  0  0
 12 11  1  0  0  0  0
 12 13  2  0  0  0  0
 13 19  1  0  0  0  0
 13 14  1  0  0  0  0
 15 16  1  0  0  0  0
 15 14  1  0  0  0  0
 16 17  1  0  0  0  0
 18 16  2  0  0  0  0
 19 20  3  0  0  0  0
 20 21  1  0  0  0  0
 21 24  1  0  0  0  0
 22 21  1  0  0  0  0
 23 21  1  0  0  0  0
 25  3  1  0  0  0  0
 25 26  1  0  0  0  0
 25 27  1  0  0  0  0
 28 25  1  0  0  0  0
M  END
>  <minimizedAffinity>
-5.20868683

$$$$
