
 OpenBabel08192222473D

 28 29  0  0  1  0  0  0  0  0999 V2000
   -7.7010   29.5730   -4.6910 C   0  0  0  0  0  0  0  0  0  0  0  0
   -7.3760   29.3580   -3.5170 O   0  0  0  0  0  0  0  0  0  0  0  0
   -7.9430   28.5300   -5.6190 N   0  0  0  0  0  0  0  0  0  0  0  0
   -9.5640   35.0970   -4.9220 C   0  0  0  0  0  1  0  0  0  0  0  0
   -9.2000   33.6740   -4.5000 C   0  0  2  0  0  3  0  0  0  0  0  0
   -7.6870   33.4520   -4.6090 C   0  0  0  0  0  2  0  0  0  0  0  0
   -7.3050   32.0190   -4.2490 C   0  0  0  0  0  2  0  0  0  0  0  0
   -8.0570   31.0050   -5.1200 C   0  0  2  0  0  3  0  0  0  0  0  0
   -9.5720   31.2100   -4.9880 C   0  0  0  0  0  2  0  0  0  0  0  0
   -9.9700   32.6440   -5.3390 C   0  0  0  0  0  2  0  0  0  0  0  0
   -7.7040   28.6600   -7.0230 C   0  0  0  0  0  0  0  0  0  0  0  0
   -8.6550   29.3120   -7.9040 C   0  0  0  0  0  3  0  0  0  0  0  0
   -8.3230   29.2580   -9.2350 C   0  0  0  0  0  0  0  0  0  0  0  0
   -6.8060   28.5550   -9.4610 S   0  0  0  0  0  0  0  0  0  0  0  0
   -6.5810   28.2870   -7.7690 C   0  0  0  0  0  0  0  0  0  0  0  0
   -5.3070   27.6740   -7.2980 C   0  0  0  0  0  0  0  0  0  0  0  0
   -4.5610   28.3320   -6.5240 O   0  0  0  0  0  1  0  0  0  0  0  0
   -5.0870   26.4860   -7.7020 O   0  0  0  0  0  0  0  0  0  0  0  0
   -9.1520   29.7180  -10.2990 C   0  0  0  0  0  0  0  0  0  0  0  0
   -9.8290   30.1500  -11.1920 C   0  0  0  0  0  0  0  0  0  0  0  0
  -10.6590   30.7230  -12.2740 C   0  0  0  0  0  0  0  0  0  0  0  0
  -11.2790   32.0430  -11.7940 C   0  0  0  0  0  1  0  0  0  0  0  0
   -9.7840   30.9810  -13.5070 C   0  0  0  0  0  1  0  0  0  0  0  0
  -11.7770   29.7340  -12.6330 C   0  0  0  0  0  1  0  0  0  0  0  0
   -8.2450   27.2350   -5.0550 N   0  0  0  0  0  4  0  0  0  0  0  0
   -9.2790   26.5510   -5.8560 C   0  0  0  0  0  1  0  0  0  0  0  0
   -7.0040   26.4840   -4.7290 C   0  0  0  0  0  1  0  0  0  0  0  0
   -8.6450   27.4100   -4.0990 H   0  0  0  0  0  0  0  0  0  0  0  0
  1  2  2  0  0  0  0
  3 25  1  0  0  0  0
  3  1  1  0  0  0  0
  5  4  1  6  0  0  0
  6  5  1  0  0  0  0
  6  7  1  0  0  0  0
  8  9  1  0  0  0  0
  8  1  1  1  0  0  0
  8  7  1  0  0  0  0
 10  9  1  0  0  0  0
 10  5  1  0  0  0  0
 11  3  1  0  0  0  0
 12 11  1  0  0  0  0
 13 12  2  0  0  0  0
 14 13  1  0  0  0  0
 14 15  1  0  0  0  0
 15 16  1  0  0  0  0
 15 11  2  0  0  0  0
 16 17  1  0  0  0  0
 18 16  2  0  0  0  0
 19 13  1  0  0  0  0
 20 19  3  0  0  0  0
 21 22  1  0  0  0  0
 21 20  1  0  0  0  0
 23 21  1  0  0  0  0
 24 21  1  0  0  0  0
 25 27  1  0  0  0  0
 25 28  1  0  0  0  0
 26 25  1  0  0  0  0
M  END
>  <minimizedAffinity>
-5.57156467

$$$$
