
 OpenBabel09132204463D

 35 40  0  0  1  0  0  0  0  0999 V2000
    9.2650   10.0640   -0.1450 C   0  0  0  0  0  0  0  0  0  0  0  0
    9.3550   11.1460    0.6500 C   0  0  0  0  0  0  0  0  0  0  0  0
    9.5930   11.0180    2.0980 C   0  0  0  0  0  0  0  0  0  0  0  0
    9.5360   12.0980    2.9920 C   0  0  0  0  0  3  0  0  0  0  0  0
    9.8060   11.9030    4.3450 C   0  0  0  0  0  3  0  0  0  0  0  0
   10.1170   10.6290    4.7700 C   0  0  0  0  0  3  0  0  0  0  0  0
   10.1520    9.5650    3.9430 N   0  0  0  0  0  0  0  0  0  0  0  0
    9.8760    9.7560    2.6330 C   0  0  1  0  0  3  0  0  0  0  0  0
    9.8280    8.6260    1.7850 N   0  0  0  0  0  0  0  0  0  0  0  0
    9.4670    8.7130    0.4620 C   0  0  0  0  0  0  0  0  0  0  0  0
    9.3230    7.7380   -0.2820 O   0  0  0  0  0  0  0  0  0  0  0  0
    7.8110    6.4260   -3.2310 C   0  0  0  0  0  1  0  0  0  0  0  0
    7.9340    7.6540   -4.0950 C   0  0  0  0  0  0  0  0  0  0  0  0
    7.6410    7.5340   -5.4670 C   0  0  0  0  0  3  0  0  0  0  0  0
    7.7380    8.6310   -6.3200 C   0  0  0  0  0  3  0  0  0  0  0  0
    8.1300    9.8610   -5.8110 C   0  0  0  0  0  3  0  0  0  0  0  0
    8.4190    9.9730   -4.4460 C   0  0  0  0  0  0  0  0  0  0  0  0
    8.3310    8.9030   -3.5680 C   0  0  0  0  0  0  0  0  0  0  0  0
    8.6080    9.0110   -2.2400 N   0  0  0  0  0  0  0  0  0  0  0  0
    8.9990   10.1280   -1.6480 C   0  0  1  0  0  3  0  0  0  0  0  0
    9.1680   11.2680   -2.2620 N   0  0  0  0  0  0  0  0  0  0  0  0
    8.9100   11.5200   -3.8090 S   0  0  0  0  0  0  0  0  0  0  0  0
   10.1660   11.8300   -4.4550 O   0  0  0  0  0  0  0  0  0  0  0  0
    7.7630   12.3890   -3.9660 O   0  0  0  0  0  0  0  0  0  0  0  0
    8.5220    8.1920   -1.6340 H   0  0  0  0  0  0  0  0  0  0  0  0
    9.4860   12.0700   -1.7220 H   0  0  0  0  0  0  0  0  0  0  0  0
    9.2680   12.4220    0.1050 O   0  0  0  0  0  0  0  0  0  0  0  0
    9.7040   13.0570    0.7110 H   0  0  0  0  0  0  0  0  0  0  0  0
   10.1780    7.3150    2.3380 C   0  0  0  0  0  3  0  0  0  0  0  0
    9.8670    6.1990    1.3640 C   0  0  0  0  0  0  0  0  0  0  0  0
    9.3160    6.4840    0.1040 C   0  0  2  0  0  3  0  0  0  0  0  0
    9.0530    5.4570   -0.8040 C   0  0  0  0  0  3  0  0  0  0  0  0
    9.3380    4.1360   -0.4650 C   0  0  0  0  0  3  0  0  0  0  0  0
    9.8860    3.8400    0.7810 C   0  0  0  0  0  3  0  0  0  0  0  0
   10.1500    4.8660    1.6920 C   0  0  0  0  0  3  0  0  0  0  0  0
  1 10  2  0  0  0  0
  1  2  1  0  0  0  0
  2  3  2  0  0  0  0
  3  4  1  0  0  0  0
  4  5  2  0  0  0  0
  5  6  1  0  0  0  0
  7  6  2  0  0  0  0
  8  3  1  1  0  0  0
  8  7  1  0  0  0  0
  9 29  1  0  0  0  0
  9  8  1  0  0  0  0
 10  9  1  0  0  0  0
 11 31  1  0  0  0  0
 11 10  1  0  0  0  0
 13 18  1  0  0  0  0
 13 12  1  0  0  0  0
 14 13  2  0  0  0  0
 15 16  2  0  0  0  0
 15 14  1  0  0  0  0
 16 17  1  0  0  0  0
 17 22  1  0  0  0  0
 17 18  2  0  0  0  0
 18 19  1  0  0  0  0
 19 20  1  0  0  0  0
 19 25  1  0  0  0  0
 20  1  1  1  0  0  0
 21 26  1  0  0  0  0
 21 20  1  0  0  0  0
 22 21  1  0  0  0  0
 23 22  2  0  0  0  0
 24 22  2  0  0  0  0
 27  2  1  0  0  0  0
 27 28  1  0  0  0  0
 30 35  1  0  0  0  0
 30 29  2  0  0  0  0
 31 32  1  6  0  0  0
 31 30  1  0  0  0  0
 32 33  2  0  0  0  0
 33 34  1  0  0  0  0
 34 35  2  0  0  0  0
M  END
>  <minimizedAffinity>
5.70490742

$$$$
