
 OpenBabel09132200103D

 35 39  0  0  1  0  0  0  0  0999 V2000
    9.5480    0.9750    1.3930 C   0  0  0  0  0  0  0  0  0  0  0  0
    9.5810    0.1630    0.3210 C   0  0  1  0  0  3  0  0  0  0  0  0
    9.6860   -1.2990    0.4670 C   0  0  0  0  0  0  0  0  0  0  0  0
    9.8840   -2.1750   -0.6120 C   0  0  0  0  0  3  0  0  0  0  0  0
    9.9400   -3.5510   -0.3970 C   0  0  0  0  0  3  0  0  0  0  0  0
    9.8040   -4.0140    0.8930 C   0  0  0  0  0  3  0  0  0  0  0  0
    9.6410   -3.1990    1.9560 N   0  0  0  0  0  0  0  0  0  0  0  0
    9.6010   -1.8650    1.7440 C   0  0  0  0  0  0  0  0  0  0  0  0
    9.5180   -1.0090    2.8680 N   0  0  0  0  0  0  0  0  0  0  0  0
    9.5650    0.3600    2.7560 C   0  0  0  0  0  0  0  0  0  0  0  0
    9.5890    1.1320    3.7180 O   0  0  0  0  0  0  0  0  0  0  0  0
   10.1780    4.3550    5.0050 C   0  0  0  0  0  1  0  0  0  0  0  0
    9.8840    5.1530    3.7610 C   0  0  0  0  0  0  0  0  0  0  0  0
    9.8510    6.5570    3.8640 C   0  0  0  0  0  3  0  0  0  0  0  0
    9.5830    7.3510    2.7510 C   0  0  0  0  0  3  0  0  0  0  0  0
    9.3440    6.7520    1.5240 C   0  0  0  0  0  3  0  0  0  0  0  0
    9.3800    5.3550    1.4290 C   0  0  0  0  0  0  0  0  0  0  0  0
    9.6450    4.5340    2.5140 C   0  0  0  0  0  0  0  0  0  0  0  0
    9.6830    3.1770    2.4230 N   0  0  0  0  0  0  0  0  0  0  0  0
    9.4620    2.4970    1.3100 C   0  0  0  0  0  0  0  0  0  0  0  0
    9.1810    3.0420    0.1570 N   0  0  0  0  0  0  0  0  0  0  0  0
    9.0800    4.6050   -0.1160 S   0  0  0  0  0  0  0  0  0  0  0  0
    7.7160    4.9400   -0.4580 O   0  0  0  0  0  0  0  0  0  0  0  0
   10.1780    5.0100   -0.9670 O   0  0  0  0  0  0  0  0  0  0  0  0
    9.8900    2.6170    3.2530 H   0  0  0  0  0  0  0  0  0  0  0  0
    9.0120    2.4340   -0.6410 H   0  0  0  0  0  0  0  0  0  0  0  0
    9.4720    0.6930   -0.9600 O   0  0  0  0  0  0  0  0  0  0  0  0
    9.1510   -0.0060   -1.5670 H   0  0  0  0  0  0  0  0  0  0  0  0
    9.3760   -1.6070    4.1980 C   0  0  0  0  0  2  0  0  0  0  0  0
    8.0640   -2.3510    4.3350 C   0  0  0  0  0  0  0  0  0  0  0  0
    7.5300   -2.6260    5.6040 C   0  0  0  0  0  3  0  0  0  0  0  0
    6.3080   -3.2900    5.7300 C   0  0  0  0  0  3  0  0  0  0  0  0
    5.6070   -3.6830    4.5920 C   0  0  0  0  0  3  0  0  0  0  0  0
    6.1260   -3.4150    3.3270 C   0  0  0  0  0  3  0  0  0  0  0  0
    7.3490   -2.7520    3.1980 C   0  0  0  0  0  3  0  0  0  0  0  0
  1 10  1  0  0  0  0
  2 27  1  1  0  0  0
  2  3  1  0  0  0  0
  2  1  1  0  0  0  0
  3  8  1  0  0  0  0
  4  5  1  0  0  0  0
  4  3  2  0  0  0  0
  5  6  2  0  0  0  0
  6  7  1  0  0  0  0
  8  7  2  0  0  0  0
  8  9  1  0  0  0  0
  9 29  1  0  0  0  0
 10  9  1  0  0  0  0
 10 11  2  0  0  0  0
 13 14  1  0  0  0  0
 13 12  1  0  0  0  0
 15 14  2  0  0  0  0
 16 15  1  0  0  0  0
 17 16  2  0  0  0  0
 17 18  1  0  0  0  0
 18 13  2  0  0  0  0
 19 18  1  0  0  0  0
 19 25  1  0  0  0  0
 20  1  2  0  0  0  0
 20 19  1  0  0  0  0
 21 20  1  0  0  0  0
 22 21  1  0  0  0  0
 22 17  1  0  0  0  0
 23 22  2  0  0  0  0
 24 22  2  0  0  0  0
 26 21  1  0  0  0  0
 28 27  1  0  0  0  0
 29 30  1  0  0  0  0
 30 31  1  0  0  0  0
 31 32  2  0  0  0  0
 33 32  1  0  0  0  0
 34 33  2  0  0  0  0
 35 34  1  0  0  0  0
 35 30  2  0  0  0  0
M  END
>  <minimizedAffinity>
2.83987784

$$$$

 OpenBabel09132200103D

 35 39  0  0  1  0  0  0  0  0999 V2000
    9.3960    5.0990    1.0690 C   0  0  0  0  0  0  0  0  0  0  0  0
    9.2250    5.2330   -0.2590 C   0  0  1  0  0  3  0  0  0  0  0  0
    9.2250    6.5570   -0.9040 C   0  0  0  0  0  0  0  0  0  0  0  0
    8.8940    6.7640   -2.2520 C   0  0  0  0  0  3  0  0  0  0  0  0
    8.9480    8.0440   -2.7990 C   0  0  0  0  0  3  0  0  0  0  0  0
    9.3250    9.0860   -1.9810 C   0  0  0  0  0  3  0  0  0  0  0  0
    9.6210    8.9280   -0.6750 N   0  0  0  0  0  0  0  0  0  0  0  0
    9.5540    7.6860   -0.1450 C   0  0  0  0  0  0  0  0  0  0  0  0
    9.7810    7.5350    1.2430 N   0  0  0  0  0  0  0  0  0  0  0  0
    9.6440    6.3280    1.8850 C   0  0  0  0  0  0  0  0  0  0  0  0
    9.7410    6.1780    3.1060 O   0  0  0  0  0  0  0  0  0  0  0  0
   10.1670    4.1610    5.9070 C   0  0  0  0  0  1  0  0  0  0  0  0
    9.9010    2.8170    5.2780 C   0  0  0  0  0  0  0  0  0  0  0  0
    9.9230    1.6790    6.1080 C   0  0  0  0  0  3  0  0  0  0  0  0
    9.6870    0.4090    5.5880 C   0  0  0  0  0  3  0  0  0  0  0  0
    9.4280    0.2600    4.2340 C   0  0  0  0  0  3  0  0  0  0  0  0
    9.4070    1.3960    3.4150 C   0  0  0  0  0  0  0  0  0  0  0  0
    9.6360    2.6760    3.8980 C   0  0  0  0  0  0  0  0  0  0  0  0
    9.6120    3.7810    3.1050 N   0  0  0  0  0  0  0  0  0  0  0  0
    9.3870    3.7590    1.8010 C   0  0  0  0  0  0  0  0  0  0  0  0
    9.1560    2.6750    1.1110 N   0  0  0  0  0  0  0  0  0  0  0  0
    9.0800    1.2060    1.7130 S   0  0  0  0  0  0  0  0  0  0  0  0
   10.1750    0.4210    1.1880 O   0  0  0  0  0  0  0  0  0  0  0  0
    7.7180    0.7260    1.6280 O   0  0  0  0  0  0  0  0  0  0  0  0
    9.7800    4.7040    3.5120 H   0  0  0  0  0  0  0  0  0  0  0  0
    9.0080    2.7580    0.1080 H   0  0  0  0  0  0  0  0  0  0  0  0
    9.0880    4.1060   -1.0620 O   0  0  0  0  0  0  0  0  0  0  0  0
    9.3390    4.3390   -1.9800 H   0  0  0  0  0  0  0  0  0  0  0  0
   10.1770    8.7100    2.0230 C   0  0  0  0  0  2  0  0  0  0  0  0
    9.4620    9.9580    1.5500 C   0  0  0  0  0  0  0  0  0  0  0  0
   10.1290   11.1930    1.5120 C   0  0  0  0  0  3  0  0  0  0  0  0
    9.4760   12.3380    1.0530 C   0  0  0  0  0  3  0  0  0  0  0  0
    8.1530   12.2620    0.6230 C   0  0  0  0  0  3  0  0  0  0  0  0
    7.4800   11.0430    0.6540 C   0  0  0  0  0  3  0  0  0  0  0  0
    8.1310    9.8950    1.1150 C   0  0  0  0  0  3  0  0  0  0  0  0
  1 20  2  0  0  0  0
  1 10  1  0  0  0  0
  2 27  1  6  0  0  0
  2  1  1  0  0  0  0
  3  2  1  0  0  0  0
  3  8  1  0  0  0  0
  4  3  2  0  0  0  0
  5  4  1  0  0  0  0
  5  6  2  0  0  0  0
  6  7  1  0  0  0  0
  7  8  2  0  0  0  0
  8  9  1  0  0  0  0
  9 10  1  0  0  0  0
  9 29  1  0  0  0  0
 10 11  2  0  0  0  0
 13 12  1  0  0  0  0
 13 14  1  0  0  0  0
 15 14  2  0  0  0  0
 16 15  1  0  0  0  0
 17 18  1  0  0  0  0
 17 16  2  0  0  0  0
 18 13  2  0  0  0  0
 19 25  1  0  0  0  0
 19 18  1  0  0  0  0
 20 19  1  0  0  0  0
 21 22  1  0  0  0  0
 21 20  1  0  0  0  0
 22 17  1  0  0  0  0
 23 22  2  0  0  0  0
 24 22  2  0  0  0  0
 26 21  1  0  0  0  0
 28 27  1  0  0  0  0
 30 29  1  0  0  0  0
 31 30  1  0  0  0  0
 32 31  2  0  0  0  0
 33 34  2  0  0  0  0
 33 32  1  0  0  0  0
 34 35  1  0  0  0  0
 35 30  2  0  0  0  0
M  END
>  <minimizedAffinity>
4.20572853

$$$$

 OpenBabel09132200103D

 35 40  0  0  1  0  0  0  0  0999 V2000
    9.2650   10.0640   -0.1450 C   0  0  0  0  0  0  0  0  0  0  0  0
    9.3550   11.1460    0.6500 C   0  0  0  0  0  0  0  0  0  0  0  0
    9.5930   11.0180    2.0980 C   0  0  0  0  0  0  0  0  0  0  0  0
    9.5360   12.0980    2.9920 C   0  0  0  0  0  3  0  0  0  0  0  0
    9.8060   11.9030    4.3450 C   0  0  0  0  0  3  0  0  0  0  0  0
   10.1170   10.6290    4.7700 C   0  0  0  0  0  3  0  0  0  0  0  0
   10.1520    9.5650    3.9430 N   0  0  0  0  0  0  0  0  0  0  0  0
    9.8760    9.7560    2.6330 C   0  0  1  0  0  3  0  0  0  0  0  0
    9.8280    8.6260    1.7850 N   0  0  0  0  0  0  0  0  0  0  0  0
    9.4670    8.7130    0.4620 C   0  0  0  0  0  0  0  0  0  0  0  0
    9.3230    7.7380   -0.2820 O   0  0  0  0  0  0  0  0  0  0  0  0
    7.8110    6.4260   -3.2310 C   0  0  0  0  0  1  0  0  0  0  0  0
    7.9340    7.6540   -4.0950 C   0  0  0  0  0  0  0  0  0  0  0  0
    7.6410    7.5340   -5.4670 C   0  0  0  0  0  3  0  0  0  0  0  0
    7.7380    8.6310   -6.3200 C   0  0  0  0  0  3  0  0  0  0  0  0
    8.1300    9.8610   -5.8110 C   0  0  0  0  0  3  0  0  0  0  0  0
    8.4190    9.9730   -4.4460 C   0  0  0  0  0  0  0  0  0  0  0  0
    8.3310    8.9030   -3.5680 C   0  0  0  0  0  0  0  0  0  0  0  0
    8.6080    9.0110   -2.2400 N   0  0  0  0  0  0  0  0  0  0  0  0
    8.9990   10.1280   -1.6480 C   0  0  1  0  0  3  0  0  0  0  0  0
    9.1680   11.2680   -2.2620 N   0  0  0  0  0  0  0  0  0  0  0  0
    8.9100   11.5200   -3.8090 S   0  0  0  0  0  0  0  0  0  0  0  0
   10.1660   11.8300   -4.4550 O   0  0  0  0  0  0  0  0  0  0  0  0
    7.7630   12.3890   -3.9660 O   0  0  0  0  0  0  0  0  0  0  0  0
    8.5220    8.1920   -1.6340 H   0  0  0  0  0  0  0  0  0  0  0  0
    9.4860   12.0700   -1.7220 H   0  0  0  0  0  0  0  0  0  0  0  0
    9.2680   12.4220    0.1050 O   0  0  0  0  0  0  0  0  0  0  0  0
    9.7040   13.0570    0.7110 H   0  0  0  0  0  0  0  0  0  0  0  0
   10.1780    7.3150    2.3380 C   0  0  0  0  0  3  0  0  0  0  0  0
    9.8670    6.1990    1.3640 C   0  0  0  0  0  0  0  0  0  0  0  0
    9.3160    6.4840    0.1040 C   0  0  2  0  0  3  0  0  0  0  0  0
    9.0530    5.4570   -0.8040 C   0  0  0  0  0  3  0  0  0  0  0  0
    9.3380    4.1360   -0.4650 C   0  0  0  0  0  3  0  0  0  0  0  0
    9.8860    3.8400    0.7810 C   0  0  0  0  0  3  0  0  0  0  0  0
   10.1500    4.8660    1.6920 C   0  0  0  0  0  3  0  0  0  0  0  0
  1 10  2  0  0  0  0
  1  2  1  0  0  0  0
  2  3  2  0  0  0  0
  3  4  1  0  0  0  0
  4  5  2  0  0  0  0
  5  6  1  0  0  0  0
  7  6  2  0  0  0  0
  8  3  1  1  0  0  0
  8  7  1  0  0  0  0
  9 29  1  0  0  0  0
  9  8  1  0  0  0  0
 10  9  1  0  0  0  0
 11 31  1  0  0  0  0
 11 10  1  0  0  0  0
 13 18  1  0  0  0  0
 13 12  1  0  0  0  0
 14 13  2  0  0  0  0
 15 16  2  0  0  0  0
 15 14  1  0  0  0  0
 16 17  1  0  0  0  0
 17 22  1  0  0  0  0
 17 18  2  0  0  0  0
 18 19  1  0  0  0  0
 19 20  1  0  0  0  0
 19 25  1  0  0  0  0
 20  1  1  1  0  0  0
 21 26  1  0  0  0  0
 21 20  1  0  0  0  0
 22 21  1  0  0  0  0
 23 22  2  0  0  0  0
 24 22  2  0  0  0  0
 27  2  1  0  0  0  0
 27 28  1  0  0  0  0
 30 35  1  0  0  0  0
 30 29  2  0  0  0  0
 31 32  1  6  0  0  0
 31 30  1  0  0  0  0
 32 33  2  0  0  0  0
 33 34  1  0  0  0  0
 34 35  2  0  0  0  0
M  END
>  <minimizedAffinity>
5.70490742

$$$$
