
 OpenBabel09132204463D

 35 39  0  0  1  0  0  0  0  0999 V2000
    9.5480    0.9750    1.3930 C   0  0  0  0  0  0  0  0  0  0  0  0
    9.5810    0.1630    0.3210 C   0  0  1  0  0  3  0  0  0  0  0  0
    9.6860   -1.2990    0.4670 C   0  0  0  0  0  0  0  0  0  0  0  0
    9.8840   -2.1750   -0.6120 C   0  0  0  0  0  3  0  0  0  0  0  0
    9.9400   -3.5510   -0.3970 C   0  0  0  0  0  3  0  0  0  0  0  0
    9.8040   -4.0140    0.8930 C   0  0  0  0  0  3  0  0  0  0  0  0
    9.6410   -3.1990    1.9560 N   0  0  0  0  0  0  0  0  0  0  0  0
    9.6010   -1.8650    1.7440 C   0  0  0  0  0  0  0  0  0  0  0  0
    9.5180   -1.0090    2.8680 N   0  0  0  0  0  0  0  0  0  0  0  0
    9.5650    0.3600    2.7560 C   0  0  0  0  0  0  0  0  0  0  0  0
    9.5890    1.1320    3.7180 O   0  0  0  0  0  0  0  0  0  0  0  0
   10.1780    4.3550    5.0050 C   0  0  0  0  0  1  0  0  0  0  0  0
    9.8840    5.1530    3.7610 C   0  0  0  0  0  0  0  0  0  0  0  0
    9.8510    6.5570    3.8640 C   0  0  0  0  0  3  0  0  0  0  0  0
    9.5830    7.3510    2.7510 C   0  0  0  0  0  3  0  0  0  0  0  0
    9.3440    6.7520    1.5240 C   0  0  0  0  0  3  0  0  0  0  0  0
    9.3800    5.3550    1.4290 C   0  0  0  0  0  0  0  0  0  0  0  0
    9.6450    4.5340    2.5140 C   0  0  0  0  0  0  0  0  0  0  0  0
    9.6830    3.1770    2.4230 N   0  0  0  0  0  0  0  0  0  0  0  0
    9.4620    2.4970    1.3100 C   0  0  0  0  0  0  0  0  0  0  0  0
    9.1810    3.0420    0.1570 N   0  0  0  0  0  0  0  0  0  0  0  0
    9.0800    4.6050   -0.1160 S   0  0  0  0  0  0  0  0  0  0  0  0
    7.7160    4.9400   -0.4580 O   0  0  0  0  0  0  0  0  0  0  0  0
   10.1780    5.0100   -0.9670 O   0  0  0  0  0  0  0  0  0  0  0  0
    9.8900    2.6170    3.2530 H   0  0  0  0  0  0  0  0  0  0  0  0
    9.0120    2.4340   -0.6410 H   0  0  0  0  0  0  0  0  0  0  0  0
    9.4720    0.6930   -0.9600 O   0  0  0  0  0  0  0  0  0  0  0  0
    9.1510   -0.0060   -1.5670 H   0  0  0  0  0  0  0  0  0  0  0  0
    9.3760   -1.6070    4.1980 C   0  0  0  0  0  2  0  0  0  0  0  0
    8.0640   -2.3510    4.3350 C   0  0  0  0  0  0  0  0  0  0  0  0
    7.5300   -2.6260    5.6040 C   0  0  0  0  0  3  0  0  0  0  0  0
    6.3080   -3.2900    5.7300 C   0  0  0  0  0  3  0  0  0  0  0  0
    5.6070   -3.6830    4.5920 C   0  0  0  0  0  3  0  0  0  0  0  0
    6.1260   -3.4150    3.3270 C   0  0  0  0  0  3  0  0  0  0  0  0
    7.3490   -2.7520    3.1980 C   0  0  0  0  0  3  0  0  0  0  0  0
  1 10  1  0  0  0  0
  2 27  1  1  0  0  0
  2  3  1  0  0  0  0
  2  1  1  0  0  0  0
  3  8  1  0  0  0  0
  4  5  1  0  0  0  0
  4  3  2  0  0  0  0
  5  6  2  0  0  0  0
  6  7  1  0  0  0  0
  8  7  2  0  0  0  0
  8  9  1  0  0  0  0
  9 29  1  0  0  0  0
 10  9  1  0  0  0  0
 10 11  2  0  0  0  0
 13 14  1  0  0  0  0
 13 12  1  0  0  0  0
 15 14  2  0  0  0  0
 16 15  1  0  0  0  0
 17 16  2  0  0  0  0
 17 18  1  0  0  0  0
 18 13  2  0  0  0  0
 19 18  1  0  0  0  0
 19 25  1  0  0  0  0
 20  1  2  0  0  0  0
 20 19  1  0  0  0  0
 21 20  1  0  0  0  0
 22 21  1  0  0  0  0
 22 17  1  0  0  0  0
 23 22  2  0  0  0  0
 24 22  2  0  0  0  0
 26 21  1  0  0  0  0
 28 27  1  0  0  0  0
 29 30  1  0  0  0  0
 30 31  1  0  0  0  0
 31 32  2  0  0  0  0
 33 32  1  0  0  0  0
 34 33  2  0  0  0  0
 35 34  1  0  0  0  0
 35 30  2  0  0  0  0
M  END
>  <minimizedAffinity>
2.83987784

$$$$
