
 OpenBabel09122223483D

 27 29  0  0  0  0  0  0  0  0999 V2000
    3.7430   -6.0720    5.0990 C   0  0  0  0  0  0  0  0  0  0  0  0
    3.6760   -6.7620    3.9430 C   0  0  0  0  0  2  0  0  0  0  0  0
    4.7140   -6.8600    2.9750 C   0  0  0  0  0  0  0  0  0  0  0  0
    5.0750   -7.9020    2.1300 C   0  0  0  0  0  3  0  0  0  0  0  0
    6.1700   -7.4720    1.3420 C   0  0  0  0  0  3  0  0  0  0  0  0
    6.4310   -6.1730    1.7180 C   0  0  0  0  0  0  0  0  0  0  0  0
    5.5450   -5.8000    2.6850 O   0  0  0  0  0  0  0  0  0  0  0  0
    7.4060   -5.1640    1.3120 C   0  0  0  0  0  0  0  0  0  0  0  0
    8.0150   -5.2230    0.0490 C   0  0  0  0  0  3  0  0  0  0  0  0
    8.9530   -4.2620   -0.3440 C   0  0  0  0  0  3  0  0  0  0  0  0
    9.2920   -3.2280    0.5260 C   0  0  0  0  0  0  0  0  0  0  0  0
   10.4460   -2.0470    0.0430 Cl  0  0  0  0  0  0  0  0  0  0  0  0
    8.7020   -3.1490    1.7840 C   0  0  0  0  0  3  0  0  0  0  0  0
    7.7650   -4.1110    2.1720 C   0  0  0  0  0  3  0  0  0  0  0  0
    4.8110   -5.2460    5.4280 N   0  0  0  0  0  4  0  0  0  0  0  0
    4.9410   -3.8760    5.3990 C   0  0  0  0  0  0  0  0  0  0  0  0
    6.0680   -3.3760    5.4780 O   0  0  0  0  0  0  0  0  0  0  0  0
    5.6930   -5.7040    5.6060 H   0  0  0  0  0  0  0  0  0  0  0  0
    3.7750   -2.9670    5.3960 C   0  0  0  0  0  0  0  0  0  0  0  0
    3.4640   -2.2760    6.5740 C   0  0  0  0  0  3  0  0  0  0  0  0
    2.3270   -1.4690    6.6320 C   0  0  0  0  0  3  0  0  0  0  0  0
    1.4900   -1.3630    5.5220 C   0  0  0  0  0  3  0  0  0  0  0  0
    1.7840   -2.0700    4.3540 C   0  0  0  0  0  3  0  0  0  0  0  0
    2.9170   -2.8830    4.2940 C   0  0  0  0  0  3  0  0  0  0  0  0
    2.5140   -5.7970    7.1300 O   0  0  0  0  0  1  0  0  0  0  0  0
    2.4280   -6.2000    5.9330 C   0  0  0  0  0  0  0  0  0  0  0  0
    1.4550   -6.7170    5.3150 O   0  0  0  0  0  0  0  0  0  0  0  0
  1 15  2  0  0  0  0
  1 26  1  0  0  0  0
  2  1  1  0  0  0  0
  3  2  1  0  0  0  0
  4  3  2  0  0  0  0
  5  6  2  0  0  0  0
  5  4  1  0  0  0  0
  6  7  1  0  0  0  0
  7  3  1  0  0  0  0
  8  6  1  0  0  0  0
  8 14  1  0  0  0  0
  9  8  2  0  0  0  0
 10  9  1  0  0  0  0
 10 11  2  0  0  0  0
 11 13  1  0  0  0  0
 12 11  1  0  0  0  0
 13 14  2  0  0  0  0
 15 18  1  0  0  0  0
 16 15  1  0  0  0  0
 16 17  2  0  0  0  0
 19 16  1  0  0  0  0
 19 20  1  0  0  0  0
 20 21  2  0  0  0  0
 22 21  1  0  0  0  0
 23 22  2  0  0  0  0
 24 23  1  0  0  0  0
 24 19  2  0  0  0  0
 26 25  1  0  0  0  0
 27 26  2  0  0  0  0
M  END
>  <minimizedAffinity>
-7.21101999

$$$$

 OpenBabel09122223483D

 27 29  0  0  0  0  0  0  0  0999 V2000
    3.0280   -5.8970    4.9070 C   0  0  0  0  0  0  0  0  0  0  0  0
    3.7560   -6.9160    4.4090 C   0  0  0  0  0  2  0  0  0  0  0  0
    4.5010   -6.8890    3.1970 C   0  0  0  0  0  0  0  0  0  0  0  0
    4.4030   -7.6670    2.0500 C   0  0  0  0  0  3  0  0  0  0  0  0
    5.3700   -7.2100    1.1240 C   0  0  0  0  0  3  0  0  0  0  0  0
    6.0160   -6.1530    1.7260 C   0  0  0  0  0  0  0  0  0  0  0  0
    5.4820   -5.9490    2.9640 O   0  0  0  0  0  0  0  0  0  0  0  0
    7.0950   -5.2500    1.3320 C   0  0  0  0  0  0  0  0  0  0  0  0
    7.7140   -5.3790    0.0790 C   0  0  0  0  0  3  0  0  0  0  0  0
    8.7510   -4.5190   -0.3030 C   0  0  0  0  0  3  0  0  0  0  0  0
    9.1790   -3.5200    0.5680 C   0  0  0  0  0  0  0  0  0  0  0  0
   10.4540   -2.4640    0.0980 Cl  0  0  0  0  0  0  0  0  0  0  0  0
    8.5800   -3.3730    1.8150 C   0  0  0  0  0  3  0  0  0  0  0  0
    7.5440   -4.2340    2.1920 C   0  0  0  0  0  3  0  0  0  0  0  0
    2.8060   -4.7140    4.2110 N   0  0  0  0  0  4  0  0  0  0  0  0
    3.1640   -3.4150    4.4920 C   0  0  0  0  0  0  0  0  0  0  0  0
    2.6290   -2.4940    3.8690 O   0  0  0  0  0  0  0  0  0  0  0  0
    2.1760   -4.7680    3.4250 H   0  0  0  0  0  0  0  0  0  0  0  0
    4.2550   -3.0770    5.4330 C   0  0  0  0  0  0  0  0  0  0  0  0
    3.9900   -2.1640    6.4620 C   0  0  0  0  0  3  0  0  0  0  0  0
    5.0130   -1.7630    7.3210 C   0  0  0  0  0  3  0  0  0  0  0  0
    6.3050   -2.2570    7.1450 C   0  0  0  0  0  3  0  0  0  0  0  0
    6.5770   -3.1480    6.1050 C   0  0  0  0  0  3  0  0  0  0  0  0
    5.5570   -3.5480    5.2400 C   0  0  0  0  0  3  0  0  0  0  0  0
    1.3730   -7.0570    6.1800 O   0  0  0  0  0  0  0  0  0  0  0  0
    2.3580   -6.2670    6.2680 C   0  0  0  0  0  0  0  0  0  0  0  0
    2.8650   -5.7060    7.2800 O   0  0  0  0  0  1  0  0  0  0  0  0
  1 26  1  0  0  0  0
  2  1  1  0  0  0  0
  3  2  1  0  0  0  0
  4  3  2  0  0  0  0
  5  6  2  0  0  0  0
  5  4  1  0  0  0  0
  6  7  1  0  0  0  0
  7  3  1  0  0  0  0
  8  6  1  0  0  0  0
  8 14  1  0  0  0  0
  9  8  2  0  0  0  0
 10  9  1  0  0  0  0
 10 11  2  0  0  0  0
 11 13  1  0  0  0  0
 12 11  1  0  0  0  0
 13 14  2  0  0  0  0
 15 16  1  0  0  0  0
 15  1  2  0  0  0  0
 16 19  1  0  0  0  0
 17 16  2  0  0  0  0
 18 15  1  0  0  0  0
 19 20  1  0  0  0  0
 20 21  2  0  0  0  0
 22 21  1  0  0  0  0
 23 22  2  0  0  0  0
 24 19  2  0  0  0  0
 24 23  1  0  0  0  0
 25 26  2  0  0  0  0
 26 27  1  0  0  0  0
M  END
>  <minimizedAffinity>
-7.15938997

$$$$

 OpenBabel09122223483D

 27 29  0  0  0  0  0  0  0  0999 V2000
    3.2770   -6.0230    6.8560 C   0  0  0  0  0  0  0  0  0  0  0  0
    2.5440   -6.8860    6.1250 C   0  0  0  0  0  2  0  0  0  0  0  0
    2.9220   -7.4370    4.8680 C   0  0  0  0  0  0  0  0  0  0  0  0
    2.5730   -8.6350    4.2570 C   0  0  0  0  0  3  0  0  0  0  0  0
    3.2080   -8.6870    2.9930 C   0  0  0  0  0  3  0  0  0  0  0  0
    3.9110   -7.5090    2.8630 C   0  0  0  0  0  0  0  0  0  0  0  0
    3.7240   -6.7510    3.9810 O   0  0  0  0  0  0  0  0  0  0  0  0
    4.7650   -6.9320    1.8280 C   0  0  0  0  0  0  0  0  0  0  0  0
    5.8730   -6.1410    2.1720 C   0  0  0  0  0  3  0  0  0  0  0  0
    6.6920   -5.5820    1.1850 C   0  0  0  0  0  3  0  0  0  0  0  0
    6.4100   -5.8100   -0.1610 C   0  0  0  0  0  0  0  0  0  0  0  0
    7.4170   -5.1220   -1.3740 Cl  0  0  0  0  0  0  0  0  0  0  0  0
    5.3180   -6.5900   -0.5250 C   0  0  0  0  0  3  0  0  0  0  0  0
    4.5020   -7.1480    0.4650 C   0  0  0  0  0  3  0  0  0  0  0  0
    4.4570   -5.4520    6.3960 N   0  0  0  0  0  4  0  0  0  0  0  0
    4.7120   -4.2200    5.8370 C   0  0  0  0  0  0  0  0  0  0  0  0
    5.7860   -4.0310    5.2570 O   0  0  0  0  0  0  0  0  0  0  0  0
    5.2580   -6.0630    6.3370 H   0  0  0  0  0  0  0  0  0  0  0  0
    3.7990   -3.0680    6.0020 C   0  0  0  0  0  0  0  0  0  0  0  0
    4.0270   -2.1830    7.0640 C   0  0  0  0  0  3  0  0  0  0  0  0
    3.1430   -1.1290    7.2970 C   0  0  0  0  0  3  0  0  0  0  0  0
    2.0210   -0.9670    6.4840 C   0  0  0  0  0  3  0  0  0  0  0  0
    1.7790   -1.8620    5.4410 C   0  0  0  0  0  3  0  0  0  0  0  0
    2.6580   -2.9210    5.2070 C   0  0  0  0  0  3  0  0  0  0  0  0
    3.2750   -4.9710    9.0010 O   0  0  0  0  0  1  0  0  0  0  0  0
    2.5660   -5.6410    8.1940 C   0  0  0  0  0  0  0  0  0  0  0  0
    1.3860   -6.0760    8.3110 O   0  0  0  0  0  0  0  0  0  0  0  0
  1 26  1  0  0  0  0
  2  1  1  0  0  0  0
  3  2  1  0  0  0  0
  4  3  2  0  0  0  0
  5  4  1  0  0  0  0
  6  5  2  0  0  0  0
  6  7  1  0  0  0  0
  7  3  1  0  0  0  0
  8  9  1  0  0  0  0
  8  6  1  0  0  0  0
 10  9  2  0  0  0  0
 11 10  1  0  0  0  0
 12 11  1  0  0  0  0
 13 11  2  0  0  0  0
 13 14  1  0  0  0  0
 14  8  2  0  0  0  0
 15  1  2  0  0  0  0
 16 19  1  0  0  0  0
 16 15  1  0  0  0  0
 17 16  2  0  0  0  0
 18 15  1  0  0  0  0
 19 20  1  0  0  0  0
 20 21  2  0  0  0  0
 22 21  1  0  0  0  0
 23 22  2  0  0  0  0
 24 23  1  0  0  0  0
 24 19  2  0  0  0  0
 26 27  2  0  0  0  0
 26 25  1  0  0  0  0
M  END
>  <minimizedAffinity>
-7.0139513

$$$$

 OpenBabel09122223483D

 27 29  0  0  0  0  0  0  0  0999 V2000
    2.3430   -5.8390    6.3750 C   0  0  0  0  0  0  0  0  0  0  0  0
    2.7280   -7.0960    6.0780 C   0  0  0  0  0  2  0  0  0  0  0  0
    3.0710   -7.5740    4.7820 C   0  0  0  0  0  0  0  0  0  0  0  0
    2.6760   -8.7190    4.1000 C   0  0  0  0  0  3  0  0  0  0  0  0
    3.2910   -8.7070    2.8260 C   0  0  0  0  0  3  0  0  0  0  0  0
    4.0280   -7.5450    2.7610 C   0  0  0  0  0  0  0  0  0  0  0  0
    3.8800   -6.8560    3.9290 O   0  0  0  0  0  0  0  0  0  0  0  0
    4.8840   -6.9270    1.7520 C   0  0  0  0  0  0  0  0  0  0  0  0
    4.5910   -7.0600    0.3860 C   0  0  0  0  0  3  0  0  0  0  0  0
    5.4110   -6.4740   -0.5860 C   0  0  0  0  0  3  0  0  0  0  0  0
    6.5350   -5.7480   -0.1990 C   0  0  0  0  0  0  0  0  0  0  0  0
    7.5430   -5.0290   -1.3950 Cl  0  0  0  0  0  0  0  0  0  0  0  0
    6.8460   -5.6040    1.1490 C   0  0  0  0  0  3  0  0  0  0  0  0
    6.0240   -6.1900    2.1170 C   0  0  0  0  0  3  0  0  0  0  0  0
    2.1010   -4.8720    5.4060 N   0  0  0  0  0  4  0  0  0  0  0  0
    2.6640   -3.6330    5.2000 C   0  0  0  0  0  0  0  0  0  0  0  0
    2.1060   -2.8370    4.4390 O   0  0  0  0  0  0  0  0  0  0  0  0
    1.3000   -5.0250    4.8110 H   0  0  0  0  0  0  0  0  0  0  0  0
    3.9780   -3.2530    5.7630 C   0  0  0  0  0  0  0  0  0  0  0  0
    4.0330   -2.1880    6.6710 C   0  0  0  0  0  3  0  0  0  0  0  0
    5.2630   -1.7530    7.1640 C   0  0  0  0  0  3  0  0  0  0  0  0
    6.4410   -2.3660    6.7380 C   0  0  0  0  0  3  0  0  0  0  0  0
    6.3910   -3.4110    5.8140 C   0  0  0  0  0  3  0  0  0  0  0  0
    5.1620   -3.8460    5.3150 C   0  0  0  0  0  3  0  0  0  0  0  0
    2.8620   -4.8780    8.4990 O   0  0  0  0  0  1  0  0  0  0  0  0
    2.0640   -5.6580    7.9010 C   0  0  0  0  0  0  0  0  0  0  0  0
    1.0980   -6.3370    8.3490 O   0  0  0  0  0  0  0  0  0  0  0  0
  1 26  1  0  0  0  0
  2  1  1  0  0  0  0
  3  2  1  0  0  0  0
  4  3  2  0  0  0  0
  5  4  1  0  0  0  0
  6  5  2  0  0  0  0
  6  7  1  0  0  0  0
  7  3  1  0  0  0  0
  8 14  1  0  0  0  0
  8  6  1  0  0  0  0
  9  8  2  0  0  0  0
 10 11  2  0  0  0  0
 10  9  1  0  0  0  0
 11 13  1  0  0  0  0
 12 11  1  0  0  0  0
 13 14  2  0  0  0  0
 15  1  2  0  0  0  0
 16 15  1  0  0  0  0
 16 19  1  0  0  0  0
 17 16  2  0  0  0  0
 18 15  1  0  0  0  0
 19 20  1  0  0  0  0
 20 21  2  0  0  0  0
 22 21  1  0  0  0  0
 23 22  2  0  0  0  0
 24 19  2  0  0  0  0
 24 23  1  0  0  0  0
 26 27  2  0  0  0  0
 26 25  1  0  0  0  0
M  END
>  <minimizedAffinity>
-6.87247181

$$$$

 OpenBabel09122223483D

 27 29  0  0  0  0  0  0  0  0999 V2000
    3.6650   -5.7060    7.1160 C   0  0  0  0  0  0  0  0  0  0  0  0
    2.8970   -6.6340    6.5100 C   0  0  0  0  0  2  0  0  0  0  0  0
    3.1450   -7.2080    5.2320 C   0  0  0  0  0  0  0  0  0  0  0  0
    2.6810   -8.3840    4.6570 C   0  0  0  0  0  3  0  0  0  0  0  0
    3.2140   -8.4750    3.3490 C   0  0  0  0  0  3  0  0  0  0  0  0
    3.9720   -7.3420    3.1580 C   0  0  0  0  0  0  0  0  0  0  0  0
    3.9160   -6.5720    4.2830 O   0  0  0  0  0  0  0  0  0  0  0  0
    4.7770   -6.8180    2.0580 C   0  0  0  0  0  0  0  0  0  0  0  0
    4.4950   -7.1770    0.7300 C   0  0  0  0  0  3  0  0  0  0  0  0
    5.2650   -6.6820   -0.3280 C   0  0  0  0  0  3  0  0  0  0  0  0
    6.3290   -5.8210   -0.0680 C   0  0  0  0  0  0  0  0  0  0  0  0
    7.2760   -5.2130   -1.3700 Cl  0  0  0  0  0  0  0  0  0  0  0  0
    6.6280   -5.4520    1.2390 C   0  0  0  0  0  3  0  0  0  0  0  0
    5.8550   -5.9480    2.2940 C   0  0  0  0  0  3  0  0  0  0  0  0
    4.7420   -5.0880    6.4930 N   0  0  0  0  0  4  0  0  0  0  0  0
    4.8460   -3.8730    5.8540 C   0  0  0  0  0  0  0  0  0  0  0  0
    5.8290   -3.6490    5.1410 O   0  0  0  0  0  0  0  0  0  0  0  0
    5.5690   -5.6520    6.3640 H   0  0  0  0  0  0  0  0  0  0  0  0
    3.8850   -2.7720    6.0790 C   0  0  0  0  0  0  0  0  0  0  0  0
    4.0890   -1.9200    7.1720 C   0  0  0  0  0  3  0  0  0  0  0  0
    3.1610   -0.9180    7.4600 C   0  0  0  0  0  3  0  0  0  0  0  0
    2.0210   -0.7760    6.6710 C   0  0  0  0  0  3  0  0  0  0  0  0
    1.8030   -1.6390    5.5950 C   0  0  0  0  0  3  0  0  0  0  0  0
    2.7250   -2.6460    5.3070 C   0  0  0  0  0  3  0  0  0  0  0  0
    3.9710   -4.8620    9.3310 O   0  0  0  0  0  1  0  0  0  0  0  0
    3.1080   -5.3150    8.5230 C   0  0  0  0  0  0  0  0  0  0  0  0
    1.8730   -5.5300    8.6840 O   0  0  0  0  0  0  0  0  0  0  0  0
  1 26  1  0  0  0  0
  2  1  1  0  0  0  0
  3  2  1  0  0  0  0
  4  3  2  0  0  0  0
  5  4  1  0  0  0  0
  6  5  2  0  0  0  0
  6  7  1  0  0  0  0
  7  3  1  0  0  0  0
  8 14  1  0  0  0  0
  8  6  1  0  0  0  0
  9  8  2  0  0  0  0
 10 11  2  0  0  0  0
 10  9  1  0  0  0  0
 11 13  1  0  0  0  0
 12 11  1  0  0  0  0
 13 14  2  0  0  0  0
 15  1  2  0  0  0  0
 16 19  1  0  0  0  0
 16 15  1  0  0  0  0
 17 16  2  0  0  0  0
 18 15  1  0  0  0  0
 19 20  1  0  0  0  0
 20 21  2  0  0  0  0
 22 21  1  0  0  0  0
 23 22  2  0  0  0  0
 24 23  1  0  0  0  0
 24 19  2  0  0  0  0
 26 27  2  0  0  0  0
 26 25  1  0  0  0  0
M  END
>  <minimizedAffinity>
-6.78765726

$$$$

 OpenBabel09122223483D

 27 29  0  0  0  0  0  0  0  0999 V2000
    2.6960   -5.6340    6.7030 C   0  0  0  0  0  0  0  0  0  0  0  0
    3.0930   -6.8870    6.4010 C   0  0  0  0  0  2  0  0  0  0  0  0
    3.3160   -7.3920    5.0900 C   0  0  0  0  0  0  0  0  0  0  0  0
    2.8110   -8.5180    4.4500 C   0  0  0  0  0  3  0  0  0  0  0  0
    3.3340   -8.5490    3.1350 C   0  0  0  0  0  3  0  0  0  0  0  0
    4.1280   -7.4310    3.0060 C   0  0  0  0  0  0  0  0  0  0  0  0
    4.1010   -6.7260    4.1740 O   0  0  0  0  0  0  0  0  0  0  0  0
    4.9430   -6.8690    1.9320 C   0  0  0  0  0  0  0  0  0  0  0  0
    6.0330   -6.0330    2.2220 C   0  0  0  0  0  3  0  0  0  0  0  0
    6.8150   -5.4890    1.1970 C   0  0  0  0  0  3  0  0  0  0  0  0
    6.5130   -5.7760   -0.1320 C   0  0  0  0  0  0  0  0  0  0  0  0
    7.4750   -5.1050   -1.3920 Cl  0  0  0  0  0  0  0  0  0  0  0  0
    5.4370   -6.6010   -0.4440 C   0  0  0  0  0  3  0  0  0  0  0  0
    4.6590   -7.1440    0.5830 C   0  0  0  0  0  3  0  0  0  0  0  0
    2.3200   -4.7060    5.7390 N   0  0  0  0  0  4  0  0  0  0  0  0
    2.8000   -3.4480    5.4550 C   0  0  0  0  0  0  0  0  0  0  0  0
    2.1370   -2.6990    4.7310 O   0  0  0  0  0  0  0  0  0  0  0  0
    1.4770   -4.9120    5.2240 H   0  0  0  0  0  0  0  0  0  0  0  0
    4.1400   -2.9920    5.8870 C   0  0  0  0  0  0  0  0  0  0  0  0
    5.2650   -3.6660    5.3950 C   0  0  0  0  0  3  0  0  0  0  0  0
    6.5400   -3.3130    5.8390 C   0  0  0  0  0  3  0  0  0  0  0  0
    6.6930   -2.3020    6.7870 C   0  0  0  0  0  3  0  0  0  0  0  0
    5.5720   -1.6450    7.2970 C   0  0  0  0  0  3  0  0  0  0  0  0
    4.2940   -1.9980    6.8590 C   0  0  0  0  0  3  0  0  0  0  0  0
    1.4650   -5.7730    8.7460 O   0  0  0  0  0  0  0  0  0  0  0  0
    2.5720   -5.4160    8.2440 C   0  0  0  0  0  0  0  0  0  0  0  0
    3.5800   -4.8840    8.7880 O   0  0  0  0  0  1  0  0  0  0  0  0
  1 26  1  0  0  0  0
  2  1  1  0  0  0  0
  3  2  1  0  0  0  0
  4  3  2  0  0  0  0
  5  4  1  0  0  0  0
  6  5  2  0  0  0  0
  6  7  1  0  0  0  0
  7  3  1  0  0  0  0
  8  9  1  0  0  0  0
  8  6  1  0  0  0  0
 10  9  2  0  0  0  0
 11 10  1  0  0  0  0
 12 11  1  0  0  0  0
 13 11  2  0  0  0  0
 13 14  1  0  0  0  0
 14  8  2  0  0  0  0
 15  1  2  0  0  0  0
 16 15  1  0  0  0  0
 16 19  1  0  0  0  0
 17 16  2  0  0  0  0
 18 15  1  0  0  0  0
 19 24  1  0  0  0  0
 20 21  1  0  0  0  0
 20 19  2  0  0  0  0
 21 22  2  0  0  0  0
 22 23  1  0  0  0  0
 24 23  2  0  0  0  0
 26 25  2  0  0  0  0
 26 27  1  0  0  0  0
M  END
>  <minimizedAffinity>
-6.72646666

$$$$

 OpenBabel09122223483D

 27 29  0  0  0  0  0  0  0  0999 V2000
    3.3260   -0.7520    9.7000 C   0  0  0  0  0  0  0  0  0  0  0  0
    3.7660   -0.6470    8.4300 C   0  0  0  0  0  2  0  0  0  0  0  0
    3.1500   -1.2300    7.2880 C   0  0  0  0  0  0  0  0  0  0  0  0
    1.9840   -0.8930    6.6110 C   0  0  0  0  0  3  0  0  0  0  0  0
    1.8340   -1.7820    5.5200 C   0  0  0  0  0  3  0  0  0  0  0  0
    2.9250   -2.6240    5.5530 C   0  0  0  0  0  0  0  0  0  0  0  0
    3.7240   -2.2800    6.6030 O   0  0  0  0  0  0  0  0  0  0  0  0
    3.3810   -3.7450    4.7350 C   0  0  0  0  0  0  0  0  0  0  0  0
    3.1940   -5.0680    5.1660 C   0  0  0  0  0  3  0  0  0  0  0  0
    3.6330   -6.1460    4.3890 C   0  0  0  0  0  3  0  0  0  0  0  0
    4.2650   -5.9100    3.1700 C   0  0  0  0  0  0  0  0  0  0  0  0
    4.8050   -7.2360    2.2150 Cl  0  0  0  0  0  0  0  0  0  0  0  0
    4.4610   -4.6070    2.7230 C   0  0  0  0  0  3  0  0  0  0  0  0
    4.0210   -3.5330    3.5020 C   0  0  0  0  0  3  0  0  0  0  0  0
    2.2660   -1.5730   10.0680 N   0  0  0  0  0  4  0  0  0  0  0  0
    2.1360   -2.9430   10.0680 C   0  0  0  0  0  0  0  0  0  0  0  0
    1.0130   -3.4420   10.1820 O   0  0  0  0  0  0  0  0  0  0  0  0
    1.3880   -1.1120   10.2590 H   0  0  0  0  0  0  0  0  0  0  0  0
    3.3030   -3.8520   10.0540 C   0  0  0  0  0  0  0  0  0  0  0  0
    3.5350   -4.6230    8.9080 C   0  0  0  0  0  3  0  0  0  0  0  0
    4.5810   -5.5470    8.8870 C   0  0  0  0  0  3  0  0  0  0  0  0
    5.3840   -5.7160   10.0140 C   0  0  0  0  0  3  0  0  0  0  0  0
    5.1400   -4.9660   11.1660 C   0  0  0  0  0  3  0  0  0  0  0  0
    4.0910   -4.0450   11.1930 C   0  0  0  0  0  3  0  0  0  0  0  0
    4.8910   -0.6940   11.5030 O   0  0  0  0  0  1  0  0  0  0  0  0
    4.2340    0.0310   10.7000 C   0  0  0  0  0  0  0  0  0  0  0  0
    4.1730    1.2890   10.6000 O   0  0  0  0  0  0  0  0  0  0  0  0
  1 15  2  0  0  0  0
  1 26  1  0  0  0  0
  2  1  1  0  0  0  0
  3  2  1  0  0  0  0
  4  3  2  0  0  0  0
  5  6  2  0  0  0  0
  5  4  1  0  0  0  0
  6  7  1  0  0  0  0
  7  3  1  0  0  0  0
  8  9  1  0  0  0  0
  8  6  1  0  0  0  0
 10  9  2  0  0  0  0
 11 10  1  0  0  0  0
 12 11  1  0  0  0  0
 13 11  2  0  0  0  0
 13 14  1  0  0  0  0
 14  8  2  0  0  0  0
 15 16  1  0  0  0  0
 15 18  1  0  0  0  0
 16 17  2  0  0  0  0
 19 16  1  0  0  0  0
 19 24  1  0  0  0  0
 20 19  2  0  0  0  0
 21 20  1  0  0  0  0
 21 22  2  0  0  0  0
 22 23  1  0  0  0  0
 23 24  2  0  0  0  0
 26 25  1  0  0  0  0
 27 26  2  0  0  0  0
M  END
>  <minimizedAffinity>
-6.6649003

$$$$

 OpenBabel09122223483D

 27 29  0  0  0  0  0  0  0  0999 V2000
    4.6300   -3.6970    5.3460 C   0  0  0  0  0  0  0  0  0  0  0  0
    3.6030   -2.8260    5.4030 C   0  0  0  0  0  2  0  0  0  0  0  0
    2.9880   -2.3460    6.5930 C   0  0  0  0  0  0  0  0  0  0  0  0
    2.4580   -1.1000    6.9050 C   0  0  0  0  0  3  0  0  0  0  0  0
    1.9430   -1.1580    8.2220 C   0  0  0  0  0  3  0  0  0  0  0  0
    2.1560   -2.4440    8.6660 C   0  0  0  0  0  0  0  0  0  0  0  0
    2.7660   -3.1630    7.6810 O   0  0  0  0  0  0  0  0  0  0  0  0
    1.8720   -3.1610    9.9070 C   0  0  0  0  0  0  0  0  0  0  0  0
    1.3610   -4.4680    9.8780 C   0  0  0  0  0  3  0  0  0  0  0  0
    1.0830   -5.1590   11.0620 C   0  0  0  0  0  3  0  0  0  0  0  0
    1.3150   -4.5470   12.2920 C   0  0  0  0  0  0  0  0  0  0  0  0
    0.9730   -5.3960   13.7490 Cl  0  0  0  0  0  0  0  0  0  0  0  0
    1.8210   -3.2520   12.3460 C   0  0  0  0  0  3  0  0  0  0  0  0
    2.0980   -2.5650   11.1590 C   0  0  0  0  0  3  0  0  0  0  0  0
    5.1350   -4.3470    6.4660 N   0  0  0  0  0  4  0  0  0  0  0  0
    6.1460   -4.0050    7.3350 C   0  0  0  0  0  0  0  0  0  0  0  0
    6.6000   -4.8620    8.1000 O   0  0  0  0  0  0  0  0  0  0  0  0
    4.8060   -5.2880    6.6240 H   0  0  0  0  0  0  0  0  0  0  0  0
    6.6360   -2.6160    7.4770 C   0  0  0  0  0  0  0  0  0  0  0  0
    7.8490   -2.2710    6.8670 C   0  0  0  0  0  3  0  0  0  0  0  0
    8.3800   -0.9930    7.0420 C   0  0  0  0  0  3  0  0  0  0  0  0
    7.7140   -0.0640    7.8400 C   0  0  0  0  0  3  0  0  0  0  0  0
    6.5180   -0.4140    8.4700 C   0  0  0  0  0  3  0  0  0  0  0  0
    5.9850   -1.6930    8.3010 C   0  0  0  0  0  3  0  0  0  0  0  0
    4.1180   -4.0960    3.0470 O   0  0  0  0  0  0  0  0  0  0  0  0
    5.0690   -3.9880    3.8750 C   0  0  0  0  0  0  0  0  0  0  0  0
    6.3150   -4.1100    3.7070 O   0  0  0  0  0  1  0  0  0  0  0  0
  1  2  1  0  0  0  0
  1 15  2  3  0  0  0
  2  3  1  0  0  0  0
  3  4  2  0  0  0  0
  3  7  1  0  0  0  0
  4  5  1  0  0  0  0
  5  6  2  0  0  0  0
  6  8  1  0  0  0  0
  7  6  1  0  0  0  0
  8 14  1  0  0  0  0
  9  8  2  0  0  0  0
  9 10  1  0  0  0  0
 10 11  2  0  0  0  0
 11 13  1  0  0  0  0
 11 12  1  0  0  0  0
 14 13  2  0  0  0  0
 15 18  1  0  0  0  0
 15 16  1  0  0  0  0
 16 19  1  0  0  0  0
 16 17  2  0  0  0  0
 19 24  1  0  0  0  0
 20 21  1  0  0  0  0
 20 19  2  0  0  0  0
 21 22  2  0  0  0  0
 22 23  1  0  0  0  0
 24 23  2  0  0  0  0
 25 26  2  0  0  0  0
 26  1  1  0  0  0  0
 27 26  1  0  0  0  0
M  END
>  <minimizedAffinity>
-6.61133909

$$$$

 OpenBabel09122223483D

 27 29  0  0  0  0  0  0  0  0999 V2000
    6.9260   -2.5700    7.0630 C   0  0  0  0  0  0  0  0  0  0  0  0
    7.8130   -1.9810    6.2350 C   0  0  0  0  0  2  0  0  0  0  0  0
    8.2200   -2.4800    4.9660 C   0  0  0  0  0  0  0  0  0  0  0  0
    9.4130   -2.3320    4.2690 C   0  0  0  0  0  3  0  0  0  0  0  0
    9.3080   -3.0540    3.0570 C   0  0  0  0  0  3  0  0  0  0  0  0
    8.0600   -3.6380    3.0600 C   0  0  0  0  0  0  0  0  0  0  0  0
    7.4150   -3.3090    4.2150 O   0  0  0  0  0  0  0  0  0  0  0  0
    7.3270   -4.4970    2.1330 C   0  0  0  0  0  0  0  0  0  0  0  0
    7.9050   -4.8980    0.9180 C   0  0  0  0  0  3  0  0  0  0  0  0
    7.2060   -5.7160    0.0240 C   0  0  0  0  0  3  0  0  0  0  0  0
    5.9170   -6.1430    0.3380 C   0  0  0  0  0  0  0  0  0  0  0  0
    5.0570   -7.1490   -0.7620 Cl  0  0  0  0  0  0  0  0  0  0  0  0
    5.3240   -5.7580    1.5360 C   0  0  0  0  0  3  0  0  0  0  0  0
    6.0260   -4.9400    2.4260 C   0  0  0  0  0  3  0  0  0  0  0  0
    6.3910   -3.8300    6.8270 N   0  0  0  0  0  4  0  0  0  0  0  0
    5.0930   -4.2420    6.6270 C   0  0  0  0  0  0  0  0  0  0  0  0
    4.8240   -5.4450    6.7040 O   0  0  0  0  0  0  0  0  0  0  0  0
    7.0210   -4.6120    6.9350 H   0  0  0  0  0  0  0  0  0  0  0  0
    4.0210   -3.3150    6.2050 C   0  0  0  0  0  0  0  0  0  0  0  0
    3.3640   -2.5630    7.1870 C   0  0  0  0  0  3  0  0  0  0  0  0
    2.2970   -1.7350    6.8360 C   0  0  0  0  0  3  0  0  0  0  0  0
    1.8720   -1.6700    5.5090 C   0  0  0  0  0  3  0  0  0  0  0  0
    2.5100   -2.4370    4.5320 C   0  0  0  0  0  3  0  0  0  0  0  0
    3.5740   -3.2710    4.8800 C   0  0  0  0  0  3  0  0  0  0  0  0
    7.0060   -2.3310    9.4390 O   0  0  0  0  0  1  0  0  0  0  0  0
    6.6990   -1.7360    8.3640 C   0  0  0  0  0  0  0  0  0  0  0  0
    6.2100   -0.5860    8.1790 O   0  0  0  0  0  0  0  0  0  0  0  0
  1 26  1  0  0  0  0
  2  1  1  0  0  0  0
  3  2  1  0  0  0  0
  4  3  2  0  0  0  0
  5  6  2  0  0  0  0
  5  4  1  0  0  0  0
  6  7  1  0  0  0  0
  7  3  1  0  0  0  0
  8 14  1  0  0  0  0
  8  6  1  0  0  0  0
  9  8  2  0  0  0  0
 10 11  2  0  0  0  0
 10  9  1  0  0  0  0
 11 13  1  0  0  0  0
 12 11  1  0  0  0  0
 13 14  2  0  0  0  0
 15 18  1  0  0  0  0
 15  1  2  0  0  0  0
 16 17  2  0  0  0  0
 16 15  1  0  0  0  0
 19 16  1  0  0  0  0
 19 20  1  0  0  0  0
 21 20  2  0  0  0  0
 22 21  1  0  0  0  0
 23 24  1  0  0  0  0
 23 22  2  0  0  0  0
 24 19  2  0  0  0  0
 26 25  1  0  0  0  0
 27 26  2  0  0  0  0
M  END
>  <minimizedAffinity>
-6.58975887

$$$$

 OpenBabel09122223483D

 27 29  0  0  0  0  0  0  0  0999 V2000
    5.2730   -2.0620    7.2210 C   0  0  0  0  0  0  0  0  0  0  0  0
    5.6220   -3.3580    7.1000 C   0  0  0  0  0  2  0  0  0  0  0  0
    4.8970   -4.3480    6.3800 C   0  0  0  0  0  0  0  0  0  0  0  0
    3.7580   -5.0680    6.7180 C   0  0  0  0  0  3  0  0  0  0  0  0
    3.4300   -5.9120    5.6300 C   0  0  0  0  0  3  0  0  0  0  0  0
    4.3690   -5.6660    4.6520 C   0  0  0  0  0  0  0  0  0  0  0  0
    5.2380   -4.7130    5.0950 O   0  0  0  0  0  0  0  0  0  0  0  0
    4.6090   -6.1840    3.3070 C   0  0  0  0  0  0  0  0  0  0  0  0
    4.7880   -5.3090    2.2250 C   0  0  0  0  0  3  0  0  0  0  0  0
    5.0140   -5.7980    0.9330 C   0  0  0  0  0  3  0  0  0  0  0  0
    5.0640   -7.1730    0.7120 C   0  0  0  0  0  0  0  0  0  0  0  0
    5.3410   -7.7740   -0.8760 Cl  0  0  0  0  0  0  0  0  0  0  0  0
    4.8890   -8.0590    1.7700 C   0  0  0  0  0  3  0  0  0  0  0  0
    4.6630   -7.5660    3.0590 C   0  0  0  0  0  3  0  0  0  0  0  0
    4.0650   -1.5560    6.7570 N   0  0  0  0  0  4  0  0  0  0  0  0
    2.8060   -1.5580    7.3140 C   0  0  0  0  0  0  0  0  0  0  0  0
    1.8320   -1.2900    6.6040 O   0  0  0  0  0  0  0  0  0  0  0  0
    4.0520   -1.2330    5.8010 H   0  0  0  0  0  0  0  0  0  0  0  0
    2.5780   -1.7550    8.7630 C   0  0  0  0  0  0  0  0  0  0  0  0
    3.0020   -0.7550    9.6470 C   0  0  0  0  0  3  0  0  0  0  0  0
    2.8730   -0.9390   11.0240 C   0  0  0  0  0  3  0  0  0  0  0  0
    2.3390   -2.1270   11.5210 C   0  0  0  0  0  3  0  0  0  0  0  0
    1.9380   -3.1360   10.6430 C   0  0  0  0  0  3  0  0  0  0  0  0
    2.0700   -2.9570    9.2650 C   0  0  0  0  0  3  0  0  0  0  0  0
    6.8950   -0.3210    7.4380 O   0  0  0  0  0  0  0  0  0  0  0  0
    6.3110   -1.2530    8.0640 C   0  0  0  0  0  0  0  0  0  0  0  0
    6.4560   -1.6530    9.2540 O   0  0  0  0  0  1  0  0  0  0  0  0
  1 26  1  0  0  0  0
  2  1  1  0  0  0  0
  3  4  2  0  0  0  0
  3  2  1  0  0  0  0
  5  4  1  0  0  0  0
  6  7  1  0  0  0  0
  6  5  2  0  0  0  0
  7  3  1  0  0  0  0
  8  6  1  0  0  0  0
  9  8  2  0  0  0  0
 10  9  1  0  0  0  0
 11 10  2  0  0  0  0
 11 13  1  0  0  0  0
 12 11  1  0  0  0  0
 13 14  2  0  0  0  0
 14  8  1  0  0  0  0
 15  1  2  3  0  0  0
 15 16  1  0  0  0  0
 16 19  1  0  0  0  0
 17 16  2  0  0  0  0
 18 15  1  0  0  0  0
 19 24  2  0  0  0  0
 19 20  1  0  0  0  0
 20 21  2  0  0  0  0
 21 22  1  0  0  0  0
 23 22  2  0  0  0  0
 24 23  1  0  0  0  0
 25 26  2  0  0  0  0
 26 27  1  0  0  0  0
M  END
>  <minimizedAffinity>
-6.57294798

$$$$
