
 OpenBabel09132204463D

 27 29  0  0  0  0  0  0  0  0999 V2000
    3.3260   -0.7520    9.7000 C   0  0  0  0  0  0  0  0  0  0  0  0
    3.7660   -0.6470    8.4300 C   0  0  0  0  0  2  0  0  0  0  0  0
    3.1500   -1.2300    7.2880 C   0  0  0  0  0  0  0  0  0  0  0  0
    1.9840   -0.8930    6.6110 C   0  0  0  0  0  3  0  0  0  0  0  0
    1.8340   -1.7820    5.5200 C   0  0  0  0  0  3  0  0  0  0  0  0
    2.9250   -2.6240    5.5530 C   0  0  0  0  0  0  0  0  0  0  0  0
    3.7240   -2.2800    6.6030 O   0  0  0  0  0  0  0  0  0  0  0  0
    3.3810   -3.7450    4.7350 C   0  0  0  0  0  0  0  0  0  0  0  0
    3.1940   -5.0680    5.1660 C   0  0  0  0  0  3  0  0  0  0  0  0
    3.6330   -6.1460    4.3890 C   0  0  0  0  0  3  0  0  0  0  0  0
    4.2650   -5.9100    3.1700 C   0  0  0  0  0  0  0  0  0  0  0  0
    4.8050   -7.2360    2.2150 Cl  0  0  0  0  0  0  0  0  0  0  0  0
    4.4610   -4.6070    2.7230 C   0  0  0  0  0  3  0  0  0  0  0  0
    4.0210   -3.5330    3.5020 C   0  0  0  0  0  3  0  0  0  0  0  0
    2.2660   -1.5730   10.0680 N   0  0  0  0  0  4  0  0  0  0  0  0
    2.1360   -2.9430   10.0680 C   0  0  0  0  0  0  0  0  0  0  0  0
    1.0130   -3.4420   10.1820 O   0  0  0  0  0  0  0  0  0  0  0  0
    1.3880   -1.1120   10.2590 H   0  0  0  0  0  0  0  0  0  0  0  0
    3.3030   -3.8520   10.0540 C   0  0  0  0  0  0  0  0  0  0  0  0
    3.5350   -4.6230    8.9080 C   0  0  0  0  0  3  0  0  0  0  0  0
    4.5810   -5.5470    8.8870 C   0  0  0  0  0  3  0  0  0  0  0  0
    5.3840   -5.7160   10.0140 C   0  0  0  0  0  3  0  0  0  0  0  0
    5.1400   -4.9660   11.1660 C   0  0  0  0  0  3  0  0  0  0  0  0
    4.0910   -4.0450   11.1930 C   0  0  0  0  0  3  0  0  0  0  0  0
    4.8910   -0.6940   11.5030 O   0  0  0  0  0  1  0  0  0  0  0  0
    4.2340    0.0310   10.7000 C   0  0  0  0  0  0  0  0  0  0  0  0
    4.1730    1.2890   10.6000 O   0  0  0  0  0  0  0  0  0  0  0  0
  1 15  2  0  0  0  0
  1 26  1  0  0  0  0
  2  1  1  0  0  0  0
  3  2  1  0  0  0  0
  4  3  2  0  0  0  0
  5  6  2  0  0  0  0
  5  4  1  0  0  0  0
  6  7  1  0  0  0  0
  7  3  1  0  0  0  0
  8  9  1  0  0  0  0
  8  6  1  0  0  0  0
 10  9  2  0  0  0  0
 11 10  1  0  0  0  0
 12 11  1  0  0  0  0
 13 11  2  0  0  0  0
 13 14  1  0  0  0  0
 14  8  2  0  0  0  0
 15 16  1  0  0  0  0
 15 18  1  0  0  0  0
 16 17  2  0  0  0  0
 19 16  1  0  0  0  0
 19 24  1  0  0  0  0
 20 19  2  0  0  0  0
 21 20  1  0  0  0  0
 21 22  2  0  0  0  0
 22 23  1  0  0  0  0
 23 24  2  0  0  0  0
 26 25  1  0  0  0  0
 27 26  2  0  0  0  0
M  END
>  <minimizedAffinity>
-6.6649003

$$$$
