
 OpenBabel09132204463D

 27 29  0  0  0  0  0  0  0  0999 V2000
    4.6300   -3.6970    5.3460 C   0  0  0  0  0  0  0  0  0  0  0  0
    3.6030   -2.8260    5.4030 C   0  0  0  0  0  2  0  0  0  0  0  0
    2.9880   -2.3460    6.5930 C   0  0  0  0  0  0  0  0  0  0  0  0
    2.4580   -1.1000    6.9050 C   0  0  0  0  0  3  0  0  0  0  0  0
    1.9430   -1.1580    8.2220 C   0  0  0  0  0  3  0  0  0  0  0  0
    2.1560   -2.4440    8.6660 C   0  0  0  0  0  0  0  0  0  0  0  0
    2.7660   -3.1630    7.6810 O   0  0  0  0  0  0  0  0  0  0  0  0
    1.8720   -3.1610    9.9070 C   0  0  0  0  0  0  0  0  0  0  0  0
    1.3610   -4.4680    9.8780 C   0  0  0  0  0  3  0  0  0  0  0  0
    1.0830   -5.1590   11.0620 C   0  0  0  0  0  3  0  0  0  0  0  0
    1.3150   -4.5470   12.2920 C   0  0  0  0  0  0  0  0  0  0  0  0
    0.9730   -5.3960   13.7490 Cl  0  0  0  0  0  0  0  0  0  0  0  0
    1.8210   -3.2520   12.3460 C   0  0  0  0  0  3  0  0  0  0  0  0
    2.0980   -2.5650   11.1590 C   0  0  0  0  0  3  0  0  0  0  0  0
    5.1350   -4.3470    6.4660 N   0  0  0  0  0  4  0  0  0  0  0  0
    6.1460   -4.0050    7.3350 C   0  0  0  0  0  0  0  0  0  0  0  0
    6.6000   -4.8620    8.1000 O   0  0  0  0  0  0  0  0  0  0  0  0
    4.8060   -5.2880    6.6240 H   0  0  0  0  0  0  0  0  0  0  0  0
    6.6360   -2.6160    7.4770 C   0  0  0  0  0  0  0  0  0  0  0  0
    7.8490   -2.2710    6.8670 C   0  0  0  0  0  3  0  0  0  0  0  0
    8.3800   -0.9930    7.0420 C   0  0  0  0  0  3  0  0  0  0  0  0
    7.7140   -0.0640    7.8400 C   0  0  0  0  0  3  0  0  0  0  0  0
    6.5180   -0.4140    8.4700 C   0  0  0  0  0  3  0  0  0  0  0  0
    5.9850   -1.6930    8.3010 C   0  0  0  0  0  3  0  0  0  0  0  0
    4.1180   -4.0960    3.0470 O   0  0  0  0  0  0  0  0  0  0  0  0
    5.0690   -3.9880    3.8750 C   0  0  0  0  0  0  0  0  0  0  0  0
    6.3150   -4.1100    3.7070 O   0  0  0  0  0  1  0  0  0  0  0  0
  1  2  1  0  0  0  0
  1 15  2  3  0  0  0
  2  3  1  0  0  0  0
  3  4  2  0  0  0  0
  3  7  1  0  0  0  0
  4  5  1  0  0  0  0
  5  6  2  0  0  0  0
  6  8  1  0  0  0  0
  7  6  1  0  0  0  0
  8 14  1  0  0  0  0
  9  8  2  0  0  0  0
  9 10  1  0  0  0  0
 10 11  2  0  0  0  0
 11 13  1  0  0  0  0
 11 12  1  0  0  0  0
 14 13  2  0  0  0  0
 15 18  1  0  0  0  0
 15 16  1  0  0  0  0
 16 19  1  0  0  0  0
 16 17  2  0  0  0  0
 19 24  1  0  0  0  0
 20 21  1  0  0  0  0
 20 19  2  0  0  0  0
 21 22  2  0  0  0  0
 22 23  1  0  0  0  0
 24 23  2  0  0  0  0
 25 26  2  0  0  0  0
 26  1  1  0  0  0  0
 27 26  1  0  0  0  0
M  END
>  <minimizedAffinity>
-6.61133909

$$$$
