
 OpenBabel09132204463D

 27 29  0  0  0  0  0  0  0  0999 V2000
    2.3430   -5.8390    6.3750 C   0  0  0  0  0  0  0  0  0  0  0  0
    2.7280   -7.0960    6.0780 C   0  0  0  0  0  2  0  0  0  0  0  0
    3.0710   -7.5740    4.7820 C   0  0  0  0  0  0  0  0  0  0  0  0
    2.6760   -8.7190    4.1000 C   0  0  0  0  0  3  0  0  0  0  0  0
    3.2910   -8.7070    2.8260 C   0  0  0  0  0  3  0  0  0  0  0  0
    4.0280   -7.5450    2.7610 C   0  0  0  0  0  0  0  0  0  0  0  0
    3.8800   -6.8560    3.9290 O   0  0  0  0  0  0  0  0  0  0  0  0
    4.8840   -6.9270    1.7520 C   0  0  0  0  0  0  0  0  0  0  0  0
    4.5910   -7.0600    0.3860 C   0  0  0  0  0  3  0  0  0  0  0  0
    5.4110   -6.4740   -0.5860 C   0  0  0  0  0  3  0  0  0  0  0  0
    6.5350   -5.7480   -0.1990 C   0  0  0  0  0  0  0  0  0  0  0  0
    7.5430   -5.0290   -1.3950 Cl  0  0  0  0  0  0  0  0  0  0  0  0
    6.8460   -5.6040    1.1490 C   0  0  0  0  0  3  0  0  0  0  0  0
    6.0240   -6.1900    2.1170 C   0  0  0  0  0  3  0  0  0  0  0  0
    2.1010   -4.8720    5.4060 N   0  0  0  0  0  4  0  0  0  0  0  0
    2.6640   -3.6330    5.2000 C   0  0  0  0  0  0  0  0  0  0  0  0
    2.1060   -2.8370    4.4390 O   0  0  0  0  0  0  0  0  0  0  0  0
    1.3000   -5.0250    4.8110 H   0  0  0  0  0  0  0  0  0  0  0  0
    3.9780   -3.2530    5.7630 C   0  0  0  0  0  0  0  0  0  0  0  0
    4.0330   -2.1880    6.6710 C   0  0  0  0  0  3  0  0  0  0  0  0
    5.2630   -1.7530    7.1640 C   0  0  0  0  0  3  0  0  0  0  0  0
    6.4410   -2.3660    6.7380 C   0  0  0  0  0  3  0  0  0  0  0  0
    6.3910   -3.4110    5.8140 C   0  0  0  0  0  3  0  0  0  0  0  0
    5.1620   -3.8460    5.3150 C   0  0  0  0  0  3  0  0  0  0  0  0
    2.8620   -4.8780    8.4990 O   0  0  0  0  0  1  0  0  0  0  0  0
    2.0640   -5.6580    7.9010 C   0  0  0  0  0  0  0  0  0  0  0  0
    1.0980   -6.3370    8.3490 O   0  0  0  0  0  0  0  0  0  0  0  0
  1 26  1  0  0  0  0
  2  1  1  0  0  0  0
  3  2  1  0  0  0  0
  4  3  2  0  0  0  0
  5  4  1  0  0  0  0
  6  5  2  0  0  0  0
  6  7  1  0  0  0  0
  7  3  1  0  0  0  0
  8 14  1  0  0  0  0
  8  6  1  0  0  0  0
  9  8  2  0  0  0  0
 10 11  2  0  0  0  0
 10  9  1  0  0  0  0
 11 13  1  0  0  0  0
 12 11  1  0  0  0  0
 13 14  2  0  0  0  0
 15  1  2  0  0  0  0
 16 15  1  0  0  0  0
 16 19  1  0  0  0  0
 17 16  2  0  0  0  0
 18 15  1  0  0  0  0
 19 20  1  0  0  0  0
 20 21  2  0  0  0  0
 22 21  1  0  0  0  0
 23 22  2  0  0  0  0
 24 19  2  0  0  0  0
 24 23  1  0  0  0  0
 26 27  2  0  0  0  0
 26 25  1  0  0  0  0
M  END
>  <minimizedAffinity>
-6.87247181

$$$$
