
 OpenBabel09132204463D

 27 29  0  0  0  0  0  0  0  0999 V2000
    2.6960   -5.6340    6.7030 C   0  0  0  0  0  0  0  0  0  0  0  0
    3.0930   -6.8870    6.4010 C   0  0  0  0  0  2  0  0  0  0  0  0
    3.3160   -7.3920    5.0900 C   0  0  0  0  0  0  0  0  0  0  0  0
    2.8110   -8.5180    4.4500 C   0  0  0  0  0  3  0  0  0  0  0  0
    3.3340   -8.5490    3.1350 C   0  0  0  0  0  3  0  0  0  0  0  0
    4.1280   -7.4310    3.0060 C   0  0  0  0  0  0  0  0  0  0  0  0
    4.1010   -6.7260    4.1740 O   0  0  0  0  0  0  0  0  0  0  0  0
    4.9430   -6.8690    1.9320 C   0  0  0  0  0  0  0  0  0  0  0  0
    6.0330   -6.0330    2.2220 C   0  0  0  0  0  3  0  0  0  0  0  0
    6.8150   -5.4890    1.1970 C   0  0  0  0  0  3  0  0  0  0  0  0
    6.5130   -5.7760   -0.1320 C   0  0  0  0  0  0  0  0  0  0  0  0
    7.4750   -5.1050   -1.3920 Cl  0  0  0  0  0  0  0  0  0  0  0  0
    5.4370   -6.6010   -0.4440 C   0  0  0  0  0  3  0  0  0  0  0  0
    4.6590   -7.1440    0.5830 C   0  0  0  0  0  3  0  0  0  0  0  0
    2.3200   -4.7060    5.7390 N   0  0  0  0  0  4  0  0  0  0  0  0
    2.8000   -3.4480    5.4550 C   0  0  0  0  0  0  0  0  0  0  0  0
    2.1370   -2.6990    4.7310 O   0  0  0  0  0  0  0  0  0  0  0  0
    1.4770   -4.9120    5.2240 H   0  0  0  0  0  0  0  0  0  0  0  0
    4.1400   -2.9920    5.8870 C   0  0  0  0  0  0  0  0  0  0  0  0
    5.2650   -3.6660    5.3950 C   0  0  0  0  0  3  0  0  0  0  0  0
    6.5400   -3.3130    5.8390 C   0  0  0  0  0  3  0  0  0  0  0  0
    6.6930   -2.3020    6.7870 C   0  0  0  0  0  3  0  0  0  0  0  0
    5.5720   -1.6450    7.2970 C   0  0  0  0  0  3  0  0  0  0  0  0
    4.2940   -1.9980    6.8590 C   0  0  0  0  0  3  0  0  0  0  0  0
    1.4650   -5.7730    8.7460 O   0  0  0  0  0  0  0  0  0  0  0  0
    2.5720   -5.4160    8.2440 C   0  0  0  0  0  0  0  0  0  0  0  0
    3.5800   -4.8840    8.7880 O   0  0  0  0  0  1  0  0  0  0  0  0
  1 26  1  0  0  0  0
  2  1  1  0  0  0  0
  3  2  1  0  0  0  0
  4  3  2  0  0  0  0
  5  4  1  0  0  0  0
  6  5  2  0  0  0  0
  6  7  1  0  0  0  0
  7  3  1  0  0  0  0
  8  9  1  0  0  0  0
  8  6  1  0  0  0  0
 10  9  2  0  0  0  0
 11 10  1  0  0  0  0
 12 11  1  0  0  0  0
 13 11  2  0  0  0  0
 13 14  1  0  0  0  0
 14  8  2  0  0  0  0
 15  1  2  0  0  0  0
 16 15  1  0  0  0  0
 16 19  1  0  0  0  0
 17 16  2  0  0  0  0
 18 15  1  0  0  0  0
 19 24  1  0  0  0  0
 20 21  1  0  0  0  0
 20 19  2  0  0  0  0
 21 22  2  0  0  0  0
 22 23  1  0  0  0  0
 24 23  2  0  0  0  0
 26 25  2  0  0  0  0
 26 27  1  0  0  0  0
M  END
>  <minimizedAffinity>
-6.72646666

$$$$
