
 OpenBabel09122222393D

 14 14  0  0  0  0  0  0  0  0999 V2000
   10.1750   -2.6170    0.8580 C   0  0  0  0  0  2  0  0  0  0  0  0
   10.1420   -3.2530   -0.3420 C   0  0  0  0  0  0  0  0  0  0  0  0
    9.3960   -4.1710   -0.7860 O   0  0  0  0  0  0  0  0  0  0  0  0
   11.2290   -2.7150   -1.2280 C   0  0  0  0  0  0  0  0  0  0  0  0
   12.3020   -3.5260   -1.6270 C   0  0  0  0  0  3  0  0  0  0  0  0
   13.3010   -3.0230   -2.4640 C   0  0  0  0  0  3  0  0  0  0  0  0
   13.2390   -1.7020   -2.9070 C   0  0  0  0  0  3  0  0  0  0  0  0
   12.1820   -0.8810   -2.5100 C   0  0  0  0  0  3  0  0  0  0  0  0
   11.1830   -1.3870   -1.6740 C   0  0  0  0  0  3  0  0  0  0  0  0
    9.3090   -2.7860    2.0840 C   0  0  0  0  0  0  0  0  0  0  0  0
    8.2880   -3.4640    2.1680 O   0  0  0  0  0  0  0  0  0  0  0  0
    9.2480   -0.8840    3.6300 O   0  0  0  0  0  0  0  0  0  0  0  0
    9.7410   -2.0410    3.3910 C   0  0  0  0  0  0  0  0  0  0  0  0
   10.5730   -2.6410    4.1590 O   0  0  0  0  0  1  0  0  0  0  0  0
  1 10  1  0  0  0  0
  2  1  1  0  0  0  0
  3  2  2  0  0  0  0
  4  2  1  0  0  0  0
  5  4  1  0  0  0  0
  6  5  2  0  0  0  0
  7  8  2  0  0  0  0
  7  6  1  0  0  0  0
  8  9  1  0  0  0  0
  9  4  2  0  0  0  0
 10 11  2  0  0  0  0
 10 13  1  0  0  0  0
 13 12  2  0  0  0  0
 13 14  1  0  0  0  0
M  END
>  <minimizedAffinity>
-5.89261055

$$$$
