
 OpenBabel09122222393D

 14 14  0  0  0  0  0  0  0  0999 V2000
   10.0060   -2.5980   -0.1490 C   0  0  0  0  0  2  0  0  0  0  0  0
   11.0920   -2.8360   -0.9320 C   0  0  0  0  0  0  0  0  0  0  0  0
   11.7190   -3.9010   -1.1960 O   0  0  0  0  0  0  0  0  0  0  0  0
   11.5690   -1.5470   -1.5370 C   0  0  0  0  0  0  0  0  0  0  0  0
   10.6760   -0.4950   -1.7880 C   0  0  0  0  0  3  0  0  0  0  0  0
   11.1290    0.7080   -2.3350 C   0  0  0  0  0  3  0  0  0  0  0  0
   12.4800    0.8670   -2.6440 C   0  0  0  0  0  3  0  0  0  0  0  0
   13.3780   -0.1750   -2.4090 C   0  0  0  0  0  3  0  0  0  0  0  0
   12.9220   -1.3770   -1.8580 C   0  0  0  0  0  3  0  0  0  0  0  0
    9.1620   -3.5420    0.6740 C   0  0  0  0  0  0  0  0  0  0  0  0
    8.9250   -3.4480    1.8760 O   0  0  0  0  0  0  0  0  0  0  0  0
    8.0870   -5.7460    0.6470 O   0  0  0  0  0  1  0  0  0  0  0  0
    8.5070   -4.7620   -0.0560 C   0  0  0  0  0  0  0  0  0  0  0  0
    8.4240   -4.7030   -1.3340 O   0  0  0  0  0  0  0  0  0  0  0  0
  1 10  1  0  0  0  0
  2  1  1  0  0  0  0
  3  2  2  0  0  0  0
  4  2  1  0  0  0  0
  5  4  1  0  0  0  0
  6  5  2  0  0  0  0
  7  8  2  0  0  0  0
  7  6  1  0  0  0  0
  8  9  1  0  0  0  0
  9  4  2  0  0  0  0
 10 11  2  0  0  0  0
 13 12  1  0  0  0  0
 13 10  1  0  0  0  0
 14 13  2  0  0  0  0
M  END
>  <minimizedAffinity>
-6.22700071

$$$$
