
 OpenBabel09122222393D

 14 14  0  0  0  0  0  0  0  0999 V2000
    9.6860   -2.3510    0.7500 C   0  0  0  0  0  2  0  0  0  0  0  0
   10.1170   -2.7790   -0.4650 C   0  0  0  0  0  0  0  0  0  0  0  0
   10.0350   -3.9030   -1.0370 O   0  0  0  0  0  0  0  0  0  0  0  0
   10.8140   -1.6550   -1.1780 C   0  0  0  0  0  0  0  0  0  0  0  0
   11.9360   -1.8990   -1.9840 C   0  0  0  0  0  3  0  0  0  0  0  0
   12.5690   -0.8510   -2.6570 C   0  0  0  0  0  3  0  0  0  0  0  0
   12.0900    0.4520   -2.5250 C   0  0  0  0  0  3  0  0  0  0  0  0
   10.9800    0.7100   -1.7170 C   0  0  0  0  0  3  0  0  0  0  0  0
   10.3470   -0.3410   -1.0470 C   0  0  0  0  0  3  0  0  0  0  0  0
    8.9400   -3.0810    1.8430 C   0  0  0  0  0  0  0  0  0  0  0  0
    8.2280   -4.0730    1.7010 O   0  0  0  0  0  0  0  0  0  0  0  0
    9.3040   -1.2990    3.4850 O   0  0  0  0  0  0  0  0  0  0  0  0
    9.0820   -2.5460    3.3070 C   0  0  0  0  0  0  0  0  0  0  0  0
    8.9610   -3.3990    4.2550 O   0  0  0  0  0  1  0  0  0  0  0  0
  1 10  1  0  0  0  0
  2  1  1  0  0  0  0
  3  2  2  0  0  0  0
  4  9  1  0  0  0  0
  4  2  1  0  0  0  0
  5  4  2  0  0  0  0
  6  7  2  0  0  0  0
  6  5  1  0  0  0  0
  7  8  1  0  0  0  0
  8  9  2  0  0  0  0
 10 13  1  0  0  0  0
 11 10  2  0  0  0  0
 13 12  2  0  0  0  0
 13 14  1  0  0  0  0
M  END
>  <minimizedAffinity>
-5.81175613

$$$$
