
 OpenBabel09122222393D

 14 14  0  0  0  0  0  0  0  0999 V2000
   11.0490   -1.5760   -1.2370 C   0  0  0  0  0  2  0  0  0  0  0  0
   11.0090   -2.9140   -0.9990 C   0  0  0  0  0  0  0  0  0  0  0  0
   11.6530   -3.8760   -1.5050 O   0  0  0  0  0  0  0  0  0  0  0  0
    9.9800   -3.2080    0.0550 C   0  0  0  0  0  0  0  0  0  0  0  0
    9.1100   -4.3010   -0.0730 C   0  0  0  0  0  3  0  0  0  0  0  0
    8.1660   -4.5790    0.9190 C   0  0  0  0  0  3  0  0  0  0  0  0
    8.0790   -3.7620    2.0460 C   0  0  0  0  0  3  0  0  0  0  0  0
    8.9320   -2.6650    2.1810 C   0  0  0  0  0  3  0  0  0  0  0  0
    9.8770   -2.3910    1.1880 C   0  0  0  0  0  3  0  0  0  0  0  0
   11.8980   -0.7720   -2.1930 C   0  0  0  0  0  0  0  0  0  0  0  0
   12.6670   -1.2220   -3.0400 O   0  0  0  0  0  0  0  0  0  0  0  0
   12.6870    1.4870   -2.7230 O   0  0  0  0  0  0  0  0  0  0  0  0
   11.7990    0.7880   -2.1230 C   0  0  0  0  0  0  0  0  0  0  0  0
   10.8190    1.2830   -1.4620 O   0  0  0  0  0  1  0  0  0  0  0  0
  1  2  1  0  0  0  0
  2  4  1  0  0  0  0
  3  2  2  0  0  0  0
  4  9  1  0  0  0  0
  5  4  2  0  0  0  0
  5  6  1  0  0  0  0
  6  7  2  0  0  0  0
  7  8  1  0  0  0  0
  9  8  2  0  0  0  0
 10 13  1  0  0  0  0
 10  1  1  0  0  0  0
 11 10  2  0  0  0  0
 12 13  2  0  0  0  0
 13 14  1  0  0  0  0
M  END
>  <minimizedAffinity>
-5.54871607

$$$$
