
 OpenBabel09122222393D

 14 14  0  0  0  0  0  0  0  0999 V2000
   10.0630   -2.8360   -0.4490 C   0  0  0  0  0  2  0  0  0  0  0  0
   11.1830   -2.9410   -1.2110 C   0  0  0  0  0  0  0  0  0  0  0  0
   11.8720   -3.9420   -1.5570 O   0  0  0  0  0  0  0  0  0  0  0  0
   11.6120   -1.5750   -1.6690 C   0  0  0  0  0  0  0  0  0  0  0  0
   10.6730   -0.5490   -1.8520 C   0  0  0  0  0  3  0  0  0  0  0  0
   11.0810    0.7220   -2.2610 C   0  0  0  0  0  3  0  0  0  0  0  0
   12.4320    0.9790   -2.4970 C   0  0  0  0  0  3  0  0  0  0  0  0
   13.3750   -0.0360   -2.3280 C   0  0  0  0  0  3  0  0  0  0  0  0
   12.9650   -1.3070   -1.9160 C   0  0  0  0  0  3  0  0  0  0  0  0
    9.2430   -3.8970    0.2460 C   0  0  0  0  0  0  0  0  0  0  0  0
    9.0220   -5.0330   -0.1670 O   0  0  0  0  0  0  0  0  0  0  0  0
    7.8490   -4.3990    2.1990 O   0  0  0  0  0  1  0  0  0  0  0  0
    8.6110   -3.5410    1.6330 C   0  0  0  0  0  0  0  0  0  0  0  0
    8.9000   -2.3960    2.1300 O   0  0  0  0  0  0  0  0  0  0  0  0
  1 10  1  0  0  0  0
  2  1  1  0  0  0  0
  3  2  2  0  0  0  0
  4  2  1  0  0  0  0
  5  4  1  0  0  0  0
  6  5  2  0  0  0  0
  7  8  2  0  0  0  0
  7  6  1  0  0  0  0
  8  9  1  0  0  0  0
  9  4  2  0  0  0  0
 10 13  1  0  0  0  0
 11 10  2  0  0  0  0
 13 14  2  0  0  0  0
 13 12  1  0  0  0  0
M  END
>  <minimizedAffinity>
-6.09896994

$$$$
