
 OpenBabel09122222393D

 14 14  0  0  0  0  0  0  0  0999 V2000
    9.4340   -2.5540    1.2240 C   0  0  0  0  0  2  0  0  0  0  0  0
    9.5020   -1.2330    0.9120 C   0  0  0  0  0  0  0  0  0  0  0  0
    9.0330   -0.2100    1.4860 O   0  0  0  0  0  0  0  0  0  0  0  0
   10.2790   -1.0560   -0.3610 C   0  0  0  0  0  0  0  0  0  0  0  0
   10.2820    0.1730   -1.0380 C   0  0  0  0  0  3  0  0  0  0  0  0
   11.0200    0.3360   -2.2120 C   0  0  0  0  0  3  0  0  0  0  0  0
   11.7580   -0.7300   -2.7260 C   0  0  0  0  0  3  0  0  0  0  0  0
   11.7560   -1.9610   -2.0670 C   0  0  0  0  0  3  0  0  0  0  0  0
   11.0190   -2.1210   -0.8910 C   0  0  0  0  0  3  0  0  0  0  0  0
    8.7740   -3.2570    2.3870 C   0  0  0  0  0  0  0  0  0  0  0  0
    7.8170   -4.0260    2.3250 O   0  0  0  0  0  0  0  0  0  0  0  0
    8.5800   -3.1470    4.8280 O   0  0  0  0  0  1  0  0  0  0  0  0
    9.3540   -3.0040    3.8180 C   0  0  0  0  0  0  0  0  0  0  0  0
   10.5870   -2.6670    3.8980 O   0  0  0  0  0  0  0  0  0  0  0  0
  1 10  1  0  0  0  0
  2  1  1  0  0  0  0
  2  3  2  0  0  0  0
  4  2  1  0  0  0  0
  5  4  2  0  0  0  0
  6  5  1  0  0  0  0
  7  6  2  0  0  0  0
  7  8  1  0  0  0  0
  8  9  2  0  0  0  0
  9  4  1  0  0  0  0
 10 13  1  0  0  0  0
 11 10  2  0  0  0  0
 13 14  2  0  0  0  0
 13 12  1  0  0  0  0
M  END
>  <minimizedAffinity>
-5.68344831

$$$$
