
 OpenBabel09122218363D

 24 27  0  0  0  0  0  0  0  0999 V2000
    2.1240  -10.2980    1.3680 C   0  0  0  0  0  1  0  0  0  0  0  0
    1.9590   -9.0010    1.9960 N   0  0  0  0  0  0  0  0  0  0  0  0
    2.9670   -8.0620    2.1350 C   0  0  0  0  0  0  0  0  0  0  0  0
    2.5470   -7.1280    3.0780 C   0  0  0  0  0  0  0  0  0  0  0  0
    1.2180   -7.5220    3.4800 C   0  0  0  0  0  0  0  0  0  0  0  0
    0.2940   -6.9890    4.4030 C   0  0  0  0  0  3  0  0  0  0  0  0
   -0.9740   -7.5570    4.5360 C   0  0  0  0  0  3  0  0  0  0  0  0
   -1.3700   -8.6450    3.7490 C   0  0  0  0  0  0  0  0  0  0  0  0
   -0.4770   -9.1810    2.8070 C   0  0  0  0  0  0  0  0  0  0  0  0
   -0.9990  -10.3930    1.6840 Cl  0  0  0  0  0  0  0  0  0  0  0  0
    0.8350   -8.6330    2.7200 C   0  0  0  0  0  0  0  0  0  0  0  0
    4.2750   -8.0830    1.4030 C   0  0  0  0  0  0  0  0  0  0  0  0
    4.5330   -7.8750    0.0260 C   0  0  0  0  0  3  0  0  0  0  0  0
    5.8940   -7.9940   -0.1400 C   0  0  0  0  0  3  0  0  0  0  0  0
    6.4930   -8.2660    1.0450 O   0  0  0  0  0  0  0  0  0  0  0  0
    5.5060   -8.3170    1.9780 C   0  0  0  0  0  3  0  0  0  0  0  0
    3.2680   -5.8910    3.5500 C   0  0  0  0  0  3  0  0  0  0  0  0
    4.0870   -5.1710    2.4690 C   0  0  0  0  0  2  0  0  0  0  0  0
    4.1760   -3.7440    2.9880 C   0  0  0  0  0  2  0  0  0  0  0  0
    2.7840   -3.4880    3.5430 C   0  0  0  0  0  2  0  0  0  0  0  0
    2.3530   -4.8160    4.1630 C   0  0  0  0  0  2  0  0  0  0  0  0
   -2.7520   -9.1950    3.9630 C   0  0  0  0  0  0  0  0  0  0  0  0
   -2.8460  -10.3490    4.4810 O   0  0  0  0  0  1  0  0  0  0  0  0
   -3.7180   -8.4190    3.6730 O   0  0  0  0  0  0  0  0  0  0  0  0
  1  2  1  0  0  0  0
  2  3  1  0  0  0  0
  2 11  1  0  0  0  0
  3  4  2  0  0  0  0
  4  5  1  0  0  0  0
  4 17  1  0  0  0  0
  5  6  1  0  0  0  0
  6  7  2  0  0  0  0
  8 22  1  0  0  0  0
  8  7  1  0  0  0  0
  9  8  2  0  0  0  0
 10  9  1  0  0  0  0
 11  9  1  0  0  0  0
 11  5  2  0  0  0  0
 12 16  2  0  0  0  0
 12  3  1  0  0  0  0
 13 12  1  0  0  0  0
 14 13  2  0  0  0  0
 14 15  1  0  0  0  0
 15 16  1  0  0  0  0
 17 21  1  0  0  0  0
 18 19  1  0  0  0  0
 18 17  1  0  0  0  0
 19 20  1  0  0  0  0
 20 21  1  0  0  0  0
 22 23  1  0  0  0  0
 24 22  2  0  0  0  0
M  END
>  <minimizedAffinity>
12.0936947

$$$$

 OpenBabel09122218363D

 24 27  0  0  0  0  0  0  0  0999 V2000
    4.3240   -4.3830   -0.3000 C   0  0  0  0  0  1  0  0  0  0  0  0
    4.2250   -5.1700    0.9150 N   0  0  0  0  0  0  0  0  0  0  0  0
    4.4600   -6.5320    0.9890 C   0  0  0  0  0  0  0  0  0  0  0  0
    3.9300   -6.9870    2.1930 C   0  0  0  0  0  0  0  0  0  0  0  0
    3.3910   -5.8300    2.8660 C   0  0  0  0  0  0  0  0  0  0  0  0
    2.7220   -5.6560    4.0960 C   0  0  0  0  0  3  0  0  0  0  0  0
    2.3690   -4.3780    4.5300 C   0  0  0  0  0  3  0  0  0  0  0  0
    2.6860   -3.2410    3.7780 C   0  0  0  0  0  0  0  0  0  0  0  0
    3.3710   -3.3840    2.5600 C   0  0  0  0  0  0  0  0  0  0  0  0
    3.9520   -1.9940    1.7040 Cl  0  0  0  0  0  0  0  0  0  0  0  0
    3.6750   -4.6960    2.0960 C   0  0  0  0  0  0  0  0  0  0  0  0
    5.1490   -7.3490   -0.0620 C   0  0  0  0  0  0  0  0  0  0  0  0
    6.2290   -6.9920   -0.9080 C   0  0  0  0  0  3  0  0  0  0  0  0
    6.4930   -8.0930   -1.6900 C   0  0  0  0  0  3  0  0  0  0  0  0
    5.6460   -9.1060   -1.3840 O   0  0  0  0  0  0  0  0  0  0  0  0
    4.8340   -8.6490   -0.3940 C   0  0  0  0  0  3  0  0  0  0  0  0
    3.9650   -8.3850    2.7580 C   0  0  0  0  0  3  0  0  0  0  0  0
    4.9460   -9.3370    2.0610 C   0  0  0  0  0  2  0  0  0  0  0  0
    5.2370  -10.3840    3.1250 C   0  0  0  0  0  2  0  0  0  0  0  0
    5.3540   -9.5620    4.3980 C   0  0  0  0  0  2  0  0  0  0  0  0
    4.3090   -8.4570    4.2560 C   0  0  0  0  0  2  0  0  0  0  0  0
    2.2630   -1.9050    4.3190 C   0  0  0  0  0  0  0  0  0  0  0  0
    3.1730   -1.0440    4.5250 O   0  0  0  0  0  1  0  0  0  0  0  0
    1.0120   -1.7230    4.4560 O   0  0  0  0  0  0  0  0  0  0  0  0
  1  2  1  0  0  0  0
  2  3  1  0  0  0  0
  2 11  1  0  0  0  0
  3  4  2  0  0  0  0
  4 17  1  0  0  0  0
  4  5  1  0  0  0  0
  5  6  1  0  0  0  0
  6  7  2  0  0  0  0
  8 22  1  0  0  0  0
  8  7  1  0  0  0  0
  9  8  2  0  0  0  0
 10  9  1  0  0  0  0
 11  9  1  0  0  0  0
 11  5  2  0  0  0  0
 12  3  1  0  0  0  0
 13 12  1  0  0  0  0
 14 15  1  0  0  0  0
 14 13  2  0  0  0  0
 15 16  1  0  0  0  0
 16 12  2  0  0  0  0
 17 21  1  0  0  0  0
 18 17  1  0  0  0  0
 18 19  1  0  0  0  0
 19 20  1  0  0  0  0
 21 20  1  0  0  0  0
 22 24  2  0  0  0  0
 22 23  1  0  0  0  0
M  END
>  <minimizedAffinity>
14.6034498

$$$$
