
 OpenBabel09132204463D

 39 43  0  0  1  0  0  0  0  0999 V2000
    4.5090   -2.3510    7.2750 N   0  0  0  0  0  0  0  0  0  0  0  0
    3.8750   -2.5430    6.0610 C   0  0  0  0  0  0  0  0  0  0  0  0
    2.6880   -1.8040    6.0830 C   0  0  0  0  0  0  0  0  0  0  0  0
    2.5860   -1.1970    7.3770 C   0  0  0  0  0  0  0  0  0  0  0  0
    1.6290   -0.3710    8.0090 C   0  0  0  0  0  3  0  0  0  0  0  0
    1.8250    0.0530    9.3300 C   0  0  0  0  0  3  0  0  0  0  0  0
    2.9640   -0.3170   10.0480 C   0  0  0  0  0  0  0  0  0  0  0  0
    3.9310   -1.1150    9.4170 C   0  0  0  0  0  3  0  0  0  0  0  0
    3.7260   -1.5520    8.0940 C   0  0  0  0  0  0  0  0  0  0  0  0
    4.3670   -3.3850    4.9740 C   0  0  0  0  0  0  0  0  0  0  0  0
    5.7350   -3.5150    4.7210 C   0  0  0  0  0  3  0  0  0  0  0  0
    6.1760   -4.2300    3.6030 C   0  0  0  0  0  3  0  0  0  0  0  0
    5.2460   -4.8030    2.7360 C   0  0  0  0  0  0  0  0  0  0  0  0
    5.7810   -5.7010    1.3700 Cl  0  0  0  0  0  0  0  0  0  0  0  0
    3.8800   -4.6850    2.9810 C   0  0  0  0  0  3  0  0  0  0  0  0
    3.4430   -3.9800    4.1010 C   0  0  0  0  0  3  0  0  0  0  0  0
    1.6990   -1.6710    4.9410 C   0  0  0  0  0  3  0  0  0  0  0  0
    0.5230   -0.7420    5.2850 C   0  0  0  0  0  2  0  0  0  0  0  0
   -0.4750   -0.6500    4.1330 C   0  0  0  0  0  2  0  0  0  0  0  0
    0.2040   -0.2380    2.8300 C   0  0  0  0  0  2  0  0  0  0  0  0
    1.3620   -1.1680    2.4810 C   0  0  0  0  0  2  0  0  0  0  0  0
    2.3740   -1.2620    3.6210 C   0  0  0  0  0  2  0  0  0  0  0  0
    3.1650    0.1190   11.4880 C   0  0  0  0  0  0  0  0  0  0  0  0
    2.1130    0.2800   12.1870 O   0  0  0  0  0  1  0  0  0  0  0  0
    4.3590    0.3010   11.8790 O   0  0  0  0  0  0  0  0  0  0  0  0
    5.8350   -2.8030    7.6870 C   0  0  0  0  0  2  0  0  0  0  0  0
    5.7240   -4.7880    9.2600 N   0  0  0  0  0  0  0  0  0  0  0  0
    5.3450   -5.7340    8.2110 C   0  0  0  0  0  1  0  0  0  0  0  0
    5.9990   -3.4410    9.0490 C   0  0  0  0  0  0  0  0  0  0  0  0
    6.2740   -2.7170   10.0180 O   0  0  0  0  0  0  0  0  0  0  0  0
    5.6430   -5.2920   10.6330 C   0  0  0  0  0  2  0  0  0  0  0  0
    2.0580   -2.4990   12.7600 C   0  0  0  0  0  1  0  0  0  0  0  0
    2.3890   -3.8650   12.2160 N   0  0  0  0  0  4  0  0  0  0  0  0
    1.4430   -4.2640   11.1250 C   0  0  0  0  0  2  0  0  0  0  0  0
    1.7790   -5.6670   10.6570 C   0  0  0  0  0  2  0  0  0  0  0  0
    3.2190   -5.7460   10.1650 C   0  0  0  0  0  2  0  0  0  0  0  0
    4.2230   -5.3120   11.2460 C   0  0  2  0  0  3  0  0  0  0  0  0
    3.8490   -3.9340   11.8150 C   0  0  0  0  0  2  0  0  0  0  0  0
    2.2690   -4.5210   13.0000 H   0  0  0  0  0  0  0  0  0  0  0  0
  1 26  1  0  0  0  0
  1  9  1  0  0  0  0
  2  3  2  0  0  0  0
  2  1  1  0  0  0  0
  3  4  1  0  0  0  0
  4  5  2  0  0  0  0
  4  9  1  0  0  0  0
  5  6  1  0  0  0  0
  6  7  2  0  0  0  0
  7 23  1  0  0  0  0
  8  7  1  0  0  0  0
  9  8  2  0  0  0  0
 10  2  1  0  0  0  0
 11 10  1  0  0  0  0
 12 11  2  0  0  0  0
 13 15  2  0  0  0  0
 13 12  1  0  0  0  0
 14 13  1  0  0  0  0
 15 16  1  0  0  0  0
 16 10  2  0  0  0  0
 17 18  1  0  0  0  0
 17  3  1  0  0  0  0
 19 18  1  0  0  0  0
 20 19  1  0  0  0  0
 21 20  1  0  0  0  0
 21 22  1  0  0  0  0
 22 17  1  0  0  0  0
 23 25  2  0  0  0  0
 23 24  1  0  0  0  0
 26 29  1  0  0  0  0
 27 31  1  0  0  0  0
 28 27  1  0  0  0  0
 29 27  1  0  0  0  0
 29 30  2  0  0  0  0
 33 32  1  0  0  0  0
 33 39  1  0  0  0  0
 34 33  1  0  0  0  0
 35 34  1  0  0  0  0
 36 35  1  0  0  0  0
 36 37  1  0  0  0  0
 37 31  1  6  0  0  0
 37 38  1  0  0  0  0
 38 33  1  0  0  0  0
M  END
>  <minimizedAffinity>
3.38101912

$$$$
