
 OpenBabel09122223353D

 31 30  0  0  1  0  0  0  0  0999 V2000
    8.7500   -2.4710   -0.8210 N   0  0  0  0  0  0  0  0  0  0  0  0
    9.1060   -3.7240   -0.4300 C   0  0  0  0  0  0  0  0  0  0  0  0
    8.6000   -4.7180   -0.9310 O   0  0  0  0  0  0  0  0  0  0  0  0
   10.0590   -3.8780    0.5850 N   0  0  0  0  0  0  0  0  0  0  0  0
    7.8370   -2.3680   -1.2420 H   0  0  0  0  0  0  0  0  0  0  0  0
   10.1460   -4.8690    0.8100 H   0  0  0  0  0  0  0  0  0  0  0  0
    8.9710   -0.3380    0.9960 C   0  0  0  0  0  0  0  0  0  0  0  0
    9.3990   -1.4180   -0.2430 C   0  0  0  0  0  2  0  0  0  0  0  0
   10.7550   -0.5560   -1.8590 S   0  0  0  0  0 15  0  0  0  0  0  0
   10.6430    1.6440   -0.6290 C   0  0  0  0  0  2  0  0  0  0  0  0
    9.6180    1.4100    0.8090 C   0  0  0  0  0  0  0  0  0  0  0  0
    9.3540    2.5260    1.7660 C   0  0  0  0  0  2  0  0  0  0  0  0
    9.6660    3.8910    1.1280 C   0  0  1  0  0  3  0  0  0  0  0  0
    9.5550    4.9880    2.1880 C   0  0  0  0  0  1  0  0  0  0  0  0
   11.0660    3.9160    0.4780 C   0  0  0  0  0  2  0  0  0  0  0  0
   11.1600    3.1240   -0.8510 C   0  0  0  0  0  2  0  0  0  0  0  0
    8.1630   -0.7230    2.1610 C   0  0  0  0  0  0  0  0  0  0  0  0
    6.9730   -0.9980    2.0820 O   0  0  0  0  0  0  0  0  0  0  0  0
    8.8740   -0.6800    3.3210 O   0  0  0  0  0  0  0  0  0  0  0  0
   10.1080    0.5130    5.0250 C   0  0  0  0  0  1  0  0  0  0  0  0
    9.2560    0.6250    3.7750 C   0  0  0  0  0  2  0  0  0  0  0  0
   10.1160   -3.0220    2.0320 S   0  0  0  0  0  0  0  0  0  0  0  0
   11.1730   -3.6860    2.7710 O   0  0  0  0  0  0  0  0  0  0  0  0
   10.2640   -1.6200    1.7030 O   0  0  0  0  0  0  0  0  0  0  0  0
    8.5110   -3.2250    3.0970 C   0  0  0  0  0  2  0  0  0  0  0  0
    7.4200   -4.1560    2.0500 C   0  0  0  0  0  3  0  0  0  0  0  0
    5.8380   -4.4560    2.6020 C   0  0  0  0  0  3  0  0  0  0  0  0
    5.2250   -3.9950    4.1550 C   0  0  0  0  0  0  0  0  0  0  0  0
    3.7820   -4.3100    4.4410 C   0  0  0  0  0  1  0  0  0  0  0  0
    6.1150   -3.1790    5.3440 C   0  0  0  0  0  3  0  0  0  0  0  0
    7.7520   -2.6850    4.9350 C   0  0  0  0  0  1  0  0  0  0  0  0
  1  2  1  0  0  0  0
  1  8  1  0  0  0  0
  2  4  1  0  0  0  0
  3  2  2  0  0  0  0
  4  6  1  0  0  0  0
  4 22  1  0  0  0  0
  5  1  1  0  0  0  0
  7 17  1  0  0  0  0
  8  7  1  0  0  0  0
 10 11  1  0  0  0  0
 11  7  2  0  0  0  0
 11 12  1  0  0  0  0
 13 12  1  0  0  0  0
 13 14  1  1  0  0  0
 15 13  1  0  0  0  0
 16 10  1  0  0  0  0
 16 15  1  0  0  0  0
 17 19  1  0  0  0  0
 18 17  2  0  0  0  0
 19 21  1  0  0  0  0
 21 20  1  0  0  0  0
 22 23  2  0  0  0  0
 22 25  1  0  0  0  0
 24 22  2  0  0  0  0
 26 27  2  0  0  0  0
 26 25  1  0  0  0  0
 27 28  1  0  0  0  0
 28 29  1  0  0  0  0
 28 30  2  0  0  0  0
 31 30  1  0  0  0  0
M  END
>  <minimizedAffinity>
3.37462664

$$$$

 OpenBabel09122223353D

 31 31  0  0  1  0  0  0  0  0999 V2000
    9.5070    2.1160    3.6970 N   0  0  0  0  0  0  0  0  0  0  0  0
   10.3320    3.1980    3.7020 C   0  0  0  0  0  0  0  0  0  0  0  0
   10.5650    3.8190    4.7280 O   0  0  0  0  0  0  0  0  0  0  0  0
   10.9090    3.6210    2.4980 N   0  0  0  0  0  0  0  0  0  0  0  0
    8.8260    2.0600    4.4410 H   0  0  0  0  0  0  0  0  0  0  0  0
   11.4260    4.4850    2.6640 H   0  0  0  0  0  0  0  0  0  0  0  0
    9.3870   -0.1960    2.1030 C   0  0  0  0  0  0  0  0  0  0  0  0
    9.3400    1.4510    2.5160 C   0  0  0  0  0  2  0  0  0  0  0  0
   10.0380    2.8830    0.8860 S   0  0  0  0  0  3  0  0  0  0  0  0
   10.5080    0.8570   -0.5420 C   0  0  0  0  0  2  0  0  0  0  0  0
   10.0690   -0.5880    0.4040 C   0  0  0  0  0  0  0  0  0  0  0  0
   10.2180   -1.9620   -0.1620 C   0  0  0  0  0  2  0  0  0  0  0  0
   11.1680   -1.9660   -1.3730 C   0  0  1  0  0  3  0  0  0  0  0  0
   11.1550   -3.3480   -2.0290 C   0  0  0  0  0  1  0  0  0  0  0  0
   10.7900   -0.8810   -2.4040 C   0  0  0  0  0  2  0  0  0  0  0  0
   11.1440    0.5620   -1.9620 C   0  0  0  0  0  2  0  0  0  0  0  0
    8.9130   -1.2670    2.9910 C   0  0  0  0  0  0  0  0  0  0  0  0
    8.8260   -1.1330    4.2050 O   0  0  0  0  0  0  0  0  0  0  0  0
    8.6450   -2.4180    2.3160 O   0  0  0  0  0  0  0  0  0  0  0  0
    7.4650   -4.5160    2.0900 C   0  0  0  0  0  1  0  0  0  0  0  0
    7.8780   -3.3980    3.0280 C   0  0  0  0  0  2  0  0  0  0  0  0
   10.1220    3.7770    1.0190 S   0  0  1  0  0  3  0  0  0  0  0  0
   11.0820    3.2400    0.0720 O   0  0  0  0  0  1  0  0  0  0  0  0
    8.8280    3.1400    1.1460 O   0  0  0  0  0  1  0  0  0  0  0  0
    9.8380    5.6230    0.5020 C   0  0  0  0  0  2  0  0  0  0  0  0
    9.7120    6.4840    2.0500 C   0  0  0  0  0  3  0  0  0  0  0  0
    9.3510    8.1470    2.0170 C   0  0  0  0  0  3  0  0  0  0  0  0
    9.1790    9.0960    0.5790 C   0  0  0  0  0  0  0  0  0  0  0  0
    8.8130   10.5450    0.7570 C   0  0  0  0  0  1  0  0  0  0  0  0
    9.3440    8.5020   -0.9990 C   0  0  0  0  0  3  0  0  0  0  0  0
    9.6210    6.7770   -1.1910 C   0  0  0  0  0  1  0  0  0  0  0  0
  1  2  1  0  0  0  0
  1  5  1  0  0  0  0
  2  3  2  0  0  0  0
  4  6  1  0  0  0  0
  4  2  1  0  0  0  0
  7  8  1  0  0  0  0
  7 17  1  0  0  0  0
  8  1  1  0  0  0  0
  9 22  1  0  0  0  0
  9 24  1  0  0  0  0
 10 11  1  0  0  0  0
 11  7  2  0  0  0  0
 12 11  1  0  0  0  0
 13 14  1  6  0  0  0
 13 12  1  0  0  0  0
 15 16  1  0  0  0  0
 15 13  1  0  0  0  0
 16 10  1  0  0  0  0
 17 18  2  0  0  0  0
 19 17  1  0  0  0  0
 19 21  1  0  0  0  0
 20 21  1  0  0  0  0
 22 25  1  1  0  0  0
 22  4  1  0  0  0  0
 23  9  1  0  0  0  0
 25 26  1  0  0  0  0
 27 26  2  0  0  0  0
 28 29  1  0  0  0  0
 28 27  1  0  0  0  0
 30 28  2  0  0  0  0
 31 30  1  0  0  0  0
M  END
>  <minimizedAffinity>
5.94200516

$$$$
