
 OpenBabel09122223163D

 29 32  0  0  0  0  0  0  0  0999 V2000
    3.3230   -8.3830    0.8640 N   0  0  0  0  0  0  0  0  0  0  0  0
    4.6600   -7.9590    0.9320 C   0  0  0  0  0  0  0  0  0  0  0  0
    4.9020   -7.0920   -0.1570 C   0  0  0  0  0  0  0  0  0  0  0  0
    3.6570   -6.9900   -0.7900 C   0  0  0  0  0  0  0  0  0  0  0  0
    3.1860   -6.2700   -1.8890 C   0  0  0  0  0  3  0  0  0  0  0  0
    1.8240   -6.5300   -2.0560 C   0  0  0  0  0  0  0  0  0  0  0  0
    1.2240   -7.6400   -0.8600 S   0  0  0  0  0  0  0  0  0  0  0  0
    2.7390   -7.7410   -0.1780 C   0  0  0  0  0  0  0  0  0  0  0  0
    5.5630   -8.3860    2.0010 C   0  0  0  0  0  0  0  0  0  0  0  0
    5.0430   -8.8520    3.2150 C   0  0  0  0  0  3  0  0  0  0  0  0
    5.9000   -9.2720    4.2340 C   0  0  0  0  0  3  0  0  0  0  0  0
    7.2800   -9.2350    4.0430 C   0  0  0  0  0  3  0  0  0  0  0  0
    7.8040   -8.7800    2.8340 C   0  0  0  0  0  3  0  0  0  0  0  0
    6.9480   -8.3560    1.8170 C   0  0  0  0  0  3  0  0  0  0  0  0
    6.1660   -6.3870   -0.5790 C   0  0  0  0  0  3  0  0  0  0  0  0
    5.8920   -5.0980   -1.3680 C   0  0  0  0  0  2  0  0  0  0  0  0
    7.1890   -4.4520   -1.8530 C   0  0  0  0  0  2  0  0  0  0  0  0
    8.1630   -4.2100   -0.7040 C   0  0  0  0  0  2  0  0  0  0  0  0
    8.4380   -5.4880    0.0830 C   0  0  0  0  0  2  0  0  0  0  0  0
    7.1420   -6.1280    0.5800 C   0  0  0  0  0  2  0  0  0  0  0  0
    0.9860   -5.9240   -3.1270 C   0  0  0  0  0  0  0  0  0  0  0  0
    0.6770   -4.6990   -2.9800 O   0  0  0  0  0  1  0  0  0  0  0  0
    0.6440   -6.6710   -4.0960 O   0  0  0  0  0  0  0  0  0  0  0  0
    2.6350   -9.2720    1.7890 C   0  0  0  0  0  2  0  0  0  0  0  0
    1.2750   -6.6160    4.2340 C   0  0  0  0  0  1  0  0  0  0  0  0
    2.2010   -7.3640    3.3960 N   0  0  0  0  0  0  0  0  0  0  0  0
    3.5120   -6.7490    3.2380 C   0  0  0  0  0  1  0  0  0  0  0  0
    1.7370   -8.5110    2.7560 C   0  0  0  0  0  0  0  0  0  0  0  0
    0.5980   -8.9400    2.9860 O   0  0  0  0  0  0  0  0  0  0  0  0
  1  2  1  0  0  0  0
  1 24  1  0  0  0  0
  2  9  1  0  0  0  0
  3  2  2  0  0  0  0
  4  8  2  0  0  0  0
  4  3  1  0  0  0  0
  5  4  1  0  0  0  0
  6  5  2  0  0  0  0
  6  7  1  0  0  0  0
  7  8  1  0  0  0  0
  8  1  1  0  0  0  0
  9 10  1  0  0  0  0
 10 11  2  0  0  0  0
 12 11  1  0  0  0  0
 13 12  2  0  0  0  0
 14  9  2  0  0  0  0
 14 13  1  0  0  0  0
 15  3  1  0  0  0  0
 15 20  1  0  0  0  0
 16 15  1  0  0  0  0
 17 16  1  0  0  0  0
 17 18  1  0  0  0  0
 18 19  1  0  0  0  0
 19 20  1  0  0  0  0
 21 22  1  0  0  0  0
 21  6  1  0  0  0  0
 23 21  2  0  0  0  0
 24 28  1  0  0  0  0
 26 25  1  0  0  0  0
 27 26  1  0  0  0  0
 28 29  2  0  0  0  0
 28 26  1  0  0  0  0
M  END
>  <minimizedAffinity>
20.9123516

$$$$
