
 OpenBabel09182209113D

 41 46  0  0  1  0  0  0  0  0999 V2000
    5.8530   -7.2250    1.4490 C   0  0  0  0  0  0  0  0  0  0  0  0
    6.1780   -8.2550    2.3360 C   0  0  0  0  0  3  0  0  0  0  0  0
    5.3810   -9.4030    2.3980 C   0  0  0  0  0  3  0  0  0  0  0  0
    4.2330   -9.5200    1.6060 C   0  0  0  0  0  0  0  0  0  0  0  0
    3.8980   -8.4870    0.7370 C   0  0  0  0  0  3  0  0  0  0  0  0
    4.7080   -7.3520    0.6630 C   0  0  0  0  0  0  0  0  0  0  0  0
    4.3860   -6.4020   -0.2290 F   0  0  0  0  0  0  0  0  0  0  0  0
    9.7130   -2.7850    0.3450 C   0  0  0  0  0  0  0  0  0  0  0  0
    9.1000   -2.1810    1.4550 C   0  0  0  0  0  3  0  0  0  0  0  0
    8.0620   -2.7990    2.1630 C   0  0  0  0  0  3  0  0  0  0  0  0
    7.6440   -4.0630    1.7260 C   0  0  0  0  0  0  0  0  0  0  0  0
    8.2240   -4.6910    0.6260 C   0  0  0  0  0  0  0  0  0  0  0  0
    9.2640   -4.0550   -0.0700 C   0  0  0  0  0  3  0  0  0  0  0  0
    7.6340   -5.9090    0.3890 N   0  0  0  0  0  0  0  0  0  0  0  0
    6.7250   -6.0630    1.3290 C   0  0  0  0  0  0  0  0  0  0  0  0
    6.6780   -4.9500    2.1560 N   0  0  0  0  0  0  0  0  0  0  0  0
    5.7290   -4.7480    3.2470 C   0  0  0  0  0  3  0  0  0  0  0  0
    6.2800   -3.8550    4.3700 C   0  0  0  0  0  2  0  0  0  0  0  0
    5.2730   -3.7200    5.5120 C   0  0  0  0  0  2  0  0  0  0  0  0
    3.9130   -3.2400    5.0140 C   0  0  0  0  0  2  0  0  0  0  0  0
    3.3640   -4.1400    3.9110 C   0  0  0  0  0  2  0  0  0  0  0  0
    4.3510   -4.2770    2.7530 C   0  0  0  0  0  2  0  0  0  0  0  0
   11.9480   -2.6880   -0.4710 O   0  0  0  0  0  1  0  0  0  0  0  0
   10.8330   -2.0790   -0.3930 C   0  0  0  0  0  0  0  0  0  0  0  0
   10.5810   -0.9300   -0.8770 O   0  0  0  0  0  0  0  0  0  0  0  0
    3.5860  -10.7180    1.7030 O   0  0  0  0  0  0  0  0  0  0  0  0
    4.2370  -11.9450    1.3050 C   0  0  1  0  0  3  0  0  0  0  0  0
    4.7540  -12.7400    2.5080 C   0  0  0  0  0  0  0  0  0  0  0  0
    4.9160  -14.1340    2.3720 C   0  0  0  0  0  3  0  0  0  0  0  0
    5.3930  -14.9070    3.4320 C   0  0  0  0  0  3  0  0  0  0  0  0
    5.7230  -14.2920    4.6310 C   0  0  0  0  0  0  0  0  0  0  0  0
    6.1720  -15.0350    5.6520 F   0  0  0  0  0  0  0  0  0  0  0  0
    5.5940  -12.9190    4.7870 C   0  0  0  0  0  3  0  0  0  0  0  0
    5.1170  -12.1430    3.7280 C   0  0  0  0  0  3  0  0  0  0  0  0
    3.5770  -12.6980    0.1420 C   0  0  0  0  0  0  0  0  0  0  0  0
    4.0260  -13.9810   -0.2310 C   0  0  0  0  0  3  0  0  0  0  0  0
    3.4590  -14.6550   -1.3150 C   0  0  0  0  0  3  0  0  0  0  0  0
    2.4550  -14.0450   -2.0530 C   0  0  0  0  0  0  0  0  0  0  0  0
    1.9130  -14.6910   -3.0940 F   0  0  0  0  0  0  0  0  0  0  0  0
    2.0190  -12.7660   -1.7370 C   0  0  0  0  0  3  0  0  0  0  0  0
    2.5880  -12.0900   -0.6560 C   0  0  0  0  0  3  0  0  0  0  0  0
  1  2  1  0  0  0  0
  2  3  2  0  0  0  0
  4 26  1  0  0  0  0
  4  3  1  0  0  0  0
  5  4  2  0  0  0  0
  6  5  1  0  0  0  0
  6  1  2  0  0  0  0
  7  6  1  0  0  0  0
  8  9  1  0  0  0  0
  9 10  2  0  0  0  0
 11 16  1  0  0  0  0
 11 10  1  0  0  0  0
 12 11  2  0  0  0  0
 13  8  2  0  0  0  0
 13 12  1  0  0  0  0
 14 12  1  0  0  0  0
 14 15  2  0  0  0  0
 15  1  1  0  0  0  0
 15 16  1  0  0  0  0
 16 17  1  0  0  0  0
 17 18  1  0  0  0  0
 18 19  1  0  0  0  0
 20 19  1  0  0  0  0
 21 20  1  0  0  0  0
 22 17  1  0  0  0  0
 22 21  1  0  0  0  0
 23 24  1  0  0  0  0
 24  8  1  0  0  0  0
 25 24  2  0  0  0  0
 27 26  1  1  0  0  0
 27 28  1  0  0  0  0
 28 34  1  0  0  0  0
 29 28  2  0  0  0  0
 29 30  1  0  0  0  0
 30 31  2  0  0  0  0
 31 33  1  0  0  0  0
 31 32  1  0  0  0  0
 34 33  2  0  0  0  0
 35 27  1  0  0  0  0
 36 35  1  0  0  0  0
 37 36  2  0  0  0  0
 38 40  2  0  0  0  0
 38 37  1  0  0  0  0
 39 38  1  0  0  0  0
 40 41  1  0  0  0  0
 41 35  2  0  0  0  0
M  END
>  <minimizedAffinity>
-8.72349834

$$$$
