
 OpenBabel09182209113D

 41 46  0  0  1  0  0  0  0  0999 V2000
    6.2620   -6.5590    0.4530 C   0  0  0  0  0  0  0  0  0  0  0  0
    6.0530   -5.7410   -0.6620 C   0  0  0  0  0  3  0  0  0  0  0  0
    7.0790   -4.9090   -1.1210 C   0  0  0  0  0  3  0  0  0  0  0  0
    8.3080   -4.8550   -0.4540 C   0  0  0  0  0  0  0  0  0  0  0  0
    8.5100   -5.6520    0.6670 C   0  0  0  0  0  3  0  0  0  0  0  0
    7.4910   -6.4970    1.1100 C   0  0  0  0  0  0  0  0  0  0  0  0
    7.7420   -7.2950    2.1600 F   0  0  0  0  0  0  0  0  0  0  0  0
    2.1830  -10.7730    1.6480 C   0  0  0  0  0  0  0  0  0  0  0  0
    1.9060   -9.9720    2.7670 C   0  0  0  0  0  3  0  0  0  0  0  0
    2.5960   -8.7810    3.0210 C   0  0  0  0  0  3  0  0  0  0  0  0
    3.5890   -8.4010    2.1100 C   0  0  0  0  0  0  0  0  0  0  0  0
    3.8960   -9.1730    0.9910 C   0  0  0  0  0  0  0  0  0  0  0  0
    3.1920  -10.3640    0.7540 C   0  0  0  0  0  3  0  0  0  0  0  0
    4.9110   -8.6000    0.2640 N   0  0  0  0  0  0  0  0  0  0  0  0
    5.2200   -7.4810    0.8860 C   0  0  0  0  0  0  0  0  0  0  0  0
    4.4550   -7.3290    2.0330 N   0  0  0  0  0  0  0  0  0  0  0  0
    4.5950   -6.2470    3.0050 C   0  0  0  0  0  3  0  0  0  0  0  0
    4.2980   -4.8610    2.4130 C   0  0  0  0  0  2  0  0  0  0  0  0
    4.5120   -3.7610    3.4520 C   0  0  0  0  0  2  0  0  0  0  0  0
    3.7150   -4.0220    4.7270 C   0  0  0  0  0  2  0  0  0  0  0  0
    4.0280   -5.3930    5.3180 C   0  0  0  0  0  2  0  0  0  0  0  0
    3.8060   -6.5090    4.2980 C   0  0  0  0  0  2  0  0  0  0  0  0
    1.6590  -12.6900    0.3360 O   0  0  0  0  0  0  0  0  0  0  0  0
    1.4110  -12.0570    1.4110 C   0  0  0  0  0  0  0  0  0  0  0  0
    0.5710  -12.4050    2.3000 O   0  0  0  0  0  1  0  0  0  0  0  0
    9.2500   -4.0620   -1.0460 O   0  0  0  0  0  0  0  0  0  0  0  0
   10.3690   -3.5520   -0.2870 C   0  0  1  0  0  3  0  0  0  0  0  0
   11.4710   -2.9920   -1.1920 C   0  0  0  0  0  0  0  0  0  0  0  0
   12.6170   -3.7800   -1.4230 C   0  0  0  0  0  3  0  0  0  0  0  0
   13.6470   -3.3230   -2.2460 C   0  0  0  0  0  3  0  0  0  0  0  0
   13.5360   -2.0820   -2.8550 C   0  0  0  0  0  0  0  0  0  0  0  0
   14.5280   -1.6390   -3.6380 F   0  0  0  0  0  0  0  0  0  0  0  0
   12.4100   -1.2920   -2.6630 C   0  0  0  0  0  3  0  0  0  0  0  0
   11.3770   -1.7470   -1.8390 C   0  0  0  0  0  3  0  0  0  0  0  0
   10.0090   -2.8000    1.0010 C   0  0  0  0  0  0  0  0  0  0  0  0
    9.1980   -1.6480    0.9580 C   0  0  0  0  0  3  0  0  0  0  0  0
    8.9000   -0.9330    2.1200 C   0  0  0  0  0  3  0  0  0  0  0  0
    9.4310   -1.3460    3.3340 C   0  0  0  0  0  0  0  0  0  0  0  0
    9.1470   -0.6580    4.4480 F   0  0  0  0  0  0  0  0  0  0  0  0
   10.2670   -2.4510    3.4040 C   0  0  0  0  0  3  0  0  0  0  0  0
   10.5670   -3.1640    2.2410 C   0  0  0  0  0  3  0  0  0  0  0  0
  1 15  1  0  0  0  0
  1  6  1  0  0  0  0
  2  1  2  0  0  0  0
  3  2  1  0  0  0  0
  3  4  2  0  0  0  0
  4  5  1  0  0  0  0
  5  6  2  0  0  0  0
  6  7  1  0  0  0  0
  8  9  1  0  0  0  0
  9 10  2  0  0  0  0
 11 10  1  0  0  0  0
 12 11  2  0  0  0  0
 13 12  1  0  0  0  0
 13  8  2  0  0  0  0
 14 15  2  0  0  0  0
 14 12  1  0  0  0  0
 15 16  1  0  0  0  0
 16 11  1  0  0  0  0
 16 17  1  0  0  0  0
 17 22  1  0  0  0  0
 18 17  1  0  0  0  0
 18 19  1  0  0  0  0
 19 20  1  0  0  0  0
 20 21  1  0  0  0  0
 22 21  1  0  0  0  0
 23 24  2  0  0  0  0
 24  8  1  0  0  0  0
 24 25  1  0  0  0  0
 26  4  1  0  0  0  0
 27 26  1  6  0  0  0
 27 35  1  0  0  0  0
 28 27  1  0  0  0  0
 29 28  1  0  0  0  0
 30 29  2  0  0  0  0
 31 33  2  0  0  0  0
 31 30  1  0  0  0  0
 32 31  1  0  0  0  0
 33 34  1  0  0  0  0
 34 28  2  0  0  0  0
 35 41  1  0  0  0  0
 36 35  2  0  0  0  0
 36 37  1  0  0  0  0
 37 38  2  0  0  0  0
 38 40  1  0  0  0  0
 38 39  1  0  0  0  0
 41 40  2  0  0  0  0
M  END
>  <minimizedAffinity>
-10.3896065

$$$$
