
 OpenBabel09182209113D

 41 46  0  0  1  0  0  0  0  0999 V2000
    5.9800   -7.3280    1.7340 C   0  0  0  0  0  0  0  0  0  0  0  0
    6.3810   -8.3010    2.6540 C   0  0  0  0  0  3  0  0  0  0  0  0
    5.6020   -9.4470    2.8450 C   0  0  0  0  0  3  0  0  0  0  0  0
    4.3990   -9.6180    2.1510 C   0  0  0  0  0  0  0  0  0  0  0  0
    3.9890   -8.6410    1.2500 C   0  0  0  0  0  3  0  0  0  0  0  0
    4.7790   -7.5090    1.0470 C   0  0  0  0  0  0  0  0  0  0  0  0
    4.3810   -6.6160    0.1270 F   0  0  0  0  0  0  0  0  0  0  0  0
    9.7480   -2.9700    0.1120 C   0  0  0  0  0  0  0  0  0  0  0  0
    9.1300   -2.2570    1.1520 C   0  0  0  0  0  3  0  0  0  0  0  0
    8.1080   -2.8110    1.9320 C   0  0  0  0  0  3  0  0  0  0  0  0
    7.7110   -4.1230    1.6420 C   0  0  0  0  0  0  0  0  0  0  0  0
    8.2980   -4.8600    0.6160 C   0  0  0  0  0  0  0  0  0  0  0  0
    9.3220   -4.2860   -0.1550 C   0  0  0  0  0  3  0  0  0  0  0  0
    7.7300   -6.1070    0.5210 N   0  0  0  0  0  0  0  0  0  0  0  0
    6.8280   -6.1720    1.4790 C   0  0  0  0  0  0  0  0  0  0  0  0
    6.7650   -4.9740    2.1760 N   0  0  0  0  0  0  0  0  0  0  0  0
    5.8180   -4.6680    3.2450 C   0  0  0  0  0  3  0  0  0  0  0  0
    6.4100   -3.7630    4.3360 C   0  0  0  0  0  2  0  0  0  0  0  0
    5.4000   -3.5180    5.4570 C   0  0  0  0  0  2  0  0  0  0  0  0
    4.0770   -2.9790    4.9210 C   0  0  0  0  0  2  0  0  0  0  0  0
    3.4870   -3.8910    3.8500 C   0  0  0  0  0  2  0  0  0  0  0  0
    4.4770   -4.1370    2.7120 C   0  0  0  0  0  2  0  0  0  0  0  0
   10.4950   -1.5370   -1.6370 O   0  0  0  0  0  0  0  0  0  0  0  0
   10.8510   -2.3300   -0.7080 C   0  0  0  0  0  0  0  0  0  0  0  0
   12.0500   -2.6340   -0.4120 O   0  0  0  0  0  1  0  0  0  0  0  0
    3.7720  -10.8110    2.3700 O   0  0  0  0  0  0  0  0  0  0  0  0
    2.4080  -11.0190    1.9430 C   0  0  1  0  0  3  0  0  0  0  0  0
    2.2500  -12.3000    1.1180 C   0  0  0  0  0  0  0  0  0  0  0  0
    2.2260  -12.1970   -0.2870 C   0  0  0  0  0  3  0  0  0  0  0  0
    2.0950  -13.3330   -1.0880 C   0  0  0  0  0  3  0  0  0  0  0  0
    1.9980  -14.5810   -0.4910 C   0  0  0  0  0  0  0  0  0  0  0  0
    1.8630  -15.6710   -1.2590 F   0  0  0  0  0  0  0  0  0  0  0  0
    2.0400  -14.7160    0.8900 C   0  0  0  0  0  3  0  0  0  0  0  0
    2.1710  -13.5810    1.6940 C   0  0  0  0  0  3  0  0  0  0  0  0
    1.3290  -10.6590    2.9730 C   0  0  0  0  0  0  0  0  0  0  0  0
    0.1640  -11.4420    3.0980 C   0  0  0  0  0  3  0  0  0  0  0  0
   -0.8420  -11.0980    4.0040 C   0  0  0  0  0  3  0  0  0  0  0  0
   -0.7070   -9.9520    4.7750 C   0  0  0  0  0  0  0  0  0  0  0  0
   -1.6730   -9.6210    5.6430 F   0  0  0  0  0  0  0  0  0  0  0  0
    0.4090   -9.1370    4.6470 C   0  0  0  0  0  3  0  0  0  0  0  0
    1.4130   -9.4800    3.7390 C   0  0  0  0  0  3  0  0  0  0  0  0
  1  2  1  0  0  0  0
  2  3  2  0  0  0  0
  4 26  1  0  0  0  0
  4  3  1  0  0  0  0
  5  4  2  0  0  0  0
  6  5  1  0  0  0  0
  6  1  2  0  0  0  0
  7  6  1  0  0  0  0
  8  9  1  0  0  0  0
  9 10  2  0  0  0  0
 11 10  1  0  0  0  0
 11 16  1  0  0  0  0
 12 11  2  0  0  0  0
 13  8  2  0  0  0  0
 13 12  1  0  0  0  0
 14 12  1  0  0  0  0
 14 15  2  0  0  0  0
 15  1  1  0  0  0  0
 15 16  1  0  0  0  0
 16 17  1  0  0  0  0
 17 18  1  0  0  0  0
 18 19  1  0  0  0  0
 20 19  1  0  0  0  0
 21 20  1  0  0  0  0
 22 17  1  0  0  0  0
 22 21  1  0  0  0  0
 23 24  2  0  0  0  0
 24 25  1  0  0  0  0
 24  8  1  0  0  0  0
 27 26  1  1  0  0  0
 27 35  1  0  0  0  0
 28 34  1  0  0  0  0
 28 27  1  0  0  0  0
 29 28  2  0  0  0  0
 30 31  2  0  0  0  0
 30 29  1  0  0  0  0
 31 33  1  0  0  0  0
 32 31  1  0  0  0  0
 33 34  2  0  0  0  0
 35 36  2  0  0  0  0
 35 41  1  0  0  0  0
 36 37  1  0  0  0  0
 37 38  2  0  0  0  0
 38 39  1  0  0  0  0
 40 38  1  0  0  0  0
 41 40  2  0  0  0  0
M  END
>  <minimizedAffinity>
-8.83751106

$$$$
