
 OpenBabel09182209113D

 41 46  0  0  1  0  0  0  0  0999 V2000
    6.3840   -6.5320    0.6400 C   0  0  0  0  0  0  0  0  0  0  0  0
    7.6390   -6.3470    1.2260 C   0  0  0  0  0  3  0  0  0  0  0  0
    8.5480   -5.4450    0.6630 C   0  0  0  0  0  3  0  0  0  0  0  0
    8.2300   -4.7470   -0.5070 C   0  0  0  0  0  0  0  0  0  0  0  0
    6.9890   -4.9450   -1.1020 C   0  0  0  0  0  3  0  0  0  0  0  0
    6.0770   -5.8300   -0.5260 C   0  0  0  0  0  0  0  0  0  0  0  0
    4.8670   -5.9520   -1.0950 F   0  0  0  0  0  0  0  0  0  0  0  0
    2.5730  -10.6630    2.7010 C   0  0  0  0  0  0  0  0  0  0  0  0
    2.3010   -9.7000    3.6850 C   0  0  0  0  0  3  0  0  0  0  0  0
    2.9390   -8.4550    3.7090 C   0  0  0  0  0  3  0  0  0  0  0  0
    3.8760   -8.1890    2.7020 C   0  0  0  0  0  0  0  0  0  0  0  0
    4.1760   -9.1210    1.7100 C   0  0  0  0  0  0  0  0  0  0  0  0
    3.5240  -10.3640    1.7050 C   0  0  0  0  0  3  0  0  0  0  0  0
    5.1310   -8.6330    0.8520 N   0  0  0  0  0  0  0  0  0  0  0  0
    5.4080   -7.4140    1.2680 C   0  0  0  0  0  0  0  0  0  0  0  0
    4.6830   -7.1080    2.4100 N   0  0  0  0  0  0  0  0  0  0  0  0
    4.8070   -5.8750    3.1840 C   0  0  0  0  0  3  0  0  0  0  0  0
    4.1840   -4.6570    2.4840 C   0  0  0  0  0  2  0  0  0  0  0  0
    4.3880   -3.3850    3.3070 C   0  0  0  0  0  2  0  0  0  0  0  0
    3.8800   -3.5470    4.7370 C   0  0  0  0  0  2  0  0  0  0  0  0
    4.5150   -4.7480    5.4300 C   0  0  0  0  0  2  0  0  0  0  0  0
    4.3090   -6.0330    4.6300 C   0  0  0  0  0  2  0  0  0  0  0  0
    0.6010  -11.9850    2.5150 O   0  0  0  0  0  0  0  0  0  0  0  0
    1.8580  -12.0000    2.7140 C   0  0  0  0  0  0  0  0  0  0  0  0
    2.5630  -13.0370    2.9250 O   0  0  0  0  0  1  0  0  0  0  0  0
    9.1700   -3.8420   -0.9110 O   0  0  0  0  0  0  0  0  0  0  0  0
   10.2930   -3.5130   -0.0620 C   0  0  1  0  0  3  0  0  0  0  0  0
   11.5130   -3.0620   -0.8700 C   0  0  0  0  0  0  0  0  0  0  0  0
   11.3760   -1.9580   -1.7360 C   0  0  0  0  0  3  0  0  0  0  0  0
   12.4580   -1.4980   -2.4880 C   0  0  0  0  0  3  0  0  0  0  0  0
   13.6880   -2.1280   -2.3720 C   0  0  0  0  0  0  0  0  0  0  0  0
   14.7250   -1.6930   -3.1010 F   0  0  0  0  0  0  0  0  0  0  0  0
   13.8590   -3.2050   -1.5120 C   0  0  0  0  0  3  0  0  0  0  0  0
   12.7780   -3.6670   -0.7580 C   0  0  0  0  0  3  0  0  0  0  0  0
    9.9460   -2.7760    1.2380 C   0  0  0  0  0  0  0  0  0  0  0  0
    9.1810   -1.5930    1.2120 C   0  0  0  0  0  3  0  0  0  0  0  0
    8.8970   -0.8930    2.3870 C   0  0  0  0  0  3  0  0  0  0  0  0
    9.3970   -1.3520    3.5970 C   0  0  0  0  0  0  0  0  0  0  0  0
    9.1270   -0.6790    4.7230 F   0  0  0  0  0  0  0  0  0  0  0  0
   10.1890   -2.4910    3.6520 C   0  0  0  0  0  3  0  0  0  0  0  0
   10.4760   -3.1890    2.4770 C   0  0  0  0  0  3  0  0  0  0  0  0
  1  2  1  0  0  0  0
  1 15  1  0  0  0  0
  3  2  2  0  0  0  0
  4  3  1  0  0  0  0
  5  6  1  0  0  0  0
  5  4  2  0  0  0  0
  6  1  2  0  0  0  0
  7  6  1  0  0  0  0
  8 24  1  0  0  0  0
  8  9  1  0  0  0  0
  9 10  2  0  0  0  0
 11 10  1  0  0  0  0
 12 11  2  0  0  0  0
 13 12  1  0  0  0  0
 13  8  2  0  0  0  0
 14 15  2  0  0  0  0
 14 12  1  0  0  0  0
 15 16  1  0  0  0  0
 16 11  1  0  0  0  0
 16 17  1  0  0  0  0
 17 22  1  0  0  0  0
 18 17  1  0  0  0  0
 18 19  1  0  0  0  0
 19 20  1  0  0  0  0
 20 21  1  0  0  0  0
 22 21  1  0  0  0  0
 23 24  2  0  0  0  0
 24 25  1  0  0  0  0
 26  4  1  0  0  0  0
 27 26  1  6  0  0  0
 27 35  1  0  0  0  0
 28 34  1  0  0  0  0
 28 27  1  0  0  0  0
 29 28  2  0  0  0  0
 30 31  2  0  0  0  0
 30 29  1  0  0  0  0
 31 33  1  0  0  0  0
 32 31  1  0  0  0  0
 33 34  2  0  0  0  0
 35 41  1  0  0  0  0
 36 35  2  0  0  0  0
 36 37  1  0  0  0  0
 37 38  2  0  0  0  0
 38 40  1  0  0  0  0
 38 39  1  0  0  0  0
 41 40  2  0  0  0  0
M  END
>  <minimizedAffinity>
-9.90143681

$$$$
