
 OpenBabel09182209113D

 41 46  0  0  1  0  0  0  0  0999 V2000
    5.5930   -7.2520    1.4950 C   0  0  0  0  0  0  0  0  0  0  0  0
    5.8110   -8.2160    2.4840 C   0  0  0  0  0  3  0  0  0  0  0  0
    4.9350   -9.2990    2.6100 C   0  0  0  0  0  3  0  0  0  0  0  0
    3.8150   -9.4140    1.7790 C   0  0  0  0  0  0  0  0  0  0  0  0
    3.5860   -8.4450    0.8080 C   0  0  0  0  0  3  0  0  0  0  0  0
    4.4730   -7.3770    0.6720 C   0  0  0  0  0  0  0  0  0  0  0  0
    4.2520   -6.4930   -0.3140 F   0  0  0  0  0  0  0  0  0  0  0  0
    9.7380   -3.1530    0.1390 C   0  0  0  0  0  0  0  0  0  0  0  0
    9.2110   -2.4740    1.2490 C   0  0  0  0  0  3  0  0  0  0  0  0
    8.1540   -2.9910    2.0070 C   0  0  0  0  0  3  0  0  0  0  0  0
    7.6260   -4.2300    1.6210 C   0  0  0  0  0  0  0  0  0  0  0  0
    8.1200   -4.9310    0.5230 C   0  0  0  0  0  0  0  0  0  0  0  0
    9.1800   -4.3950   -0.2240 C   0  0  0  0  0  3  0  0  0  0  0  0
    7.4310   -6.1060    0.3410 N   0  0  0  0  0  0  0  0  0  0  0  0
    6.5450   -6.1640    1.3140 C   0  0  0  0  0  0  0  0  0  0  0  0
    6.6110   -5.0290    2.1080 N   0  0  0  0  0  0  0  0  0  0  0  0
    5.7170   -4.7240    3.2220 C   0  0  0  0  0  3  0  0  0  0  0  0
    6.3660   -3.8290    4.2890 C   0  0  0  0  0  2  0  0  0  0  0  0
    5.4120   -3.5870    5.4590 C   0  0  0  0  0  2  0  0  0  0  0  0
    4.0680   -3.0370    4.9900 C   0  0  0  0  0  2  0  0  0  0  0  0
    3.4220   -3.9390    3.9420 C   0  0  0  0  0  2  0  0  0  0  0  0
    4.3560   -4.1830    2.7570 C   0  0  0  0  0  2  0  0  0  0  0  0
   10.5770   -1.7840   -1.6200 O   0  0  0  0  0  0  0  0  0  0  0  0
   10.8830   -2.5550   -0.6550 C   0  0  0  0  0  0  0  0  0  0  0  0
   12.0640   -2.8690   -0.3030 O   0  0  0  0  0  1  0  0  0  0  0  0
    3.0840  -10.5550    1.9520 O   0  0  0  0  0  0  0  0  0  0  0  0
    3.0870  -11.2490    3.2190 C   0  0  1  0  0  3  0  0  0  0  0  0
    1.7130  -11.2180    3.8960 C   0  0  0  0  0  0  0  0  0  0  0  0
    0.9140  -10.0670    3.7450 C   0  0  0  0  0  3  0  0  0  0  0  0
   -0.3500   -9.9880    4.3320 C   0  0  0  0  0  3  0  0  0  0  0  0
   -0.8310  -11.0640    5.0630 C   0  0  0  0  0  0  0  0  0  0  0  0
   -2.0410  -10.9860    5.6330 F   0  0  0  0  0  0  0  0  0  0  0  0
   -0.0770  -12.2200    5.2110 C   0  0  0  0  0  3  0  0  0  0  0  0
    1.1890  -12.3010    4.6250 C   0  0  0  0  0  3  0  0  0  0  0  0
    3.9100  -12.5430    3.2640 C   0  0  0  0  0  0  0  0  0  0  0  0
    4.7700  -12.8110    4.3480 C   0  0  0  0  0  3  0  0  0  0  0  0
    5.5540  -13.9670    4.3770 C   0  0  0  0  0  3  0  0  0  0  0  0
    5.5080  -14.8530    3.3100 C   0  0  0  0  0  0  0  0  0  0  0  0
    6.2620  -15.9600    3.3360 F   0  0  0  0  0  0  0  0  0  0  0  0
    4.7030  -14.5980    2.2080 C   0  0  0  0  0  3  0  0  0  0  0  0
    3.9210  -13.4410    2.1790 C   0  0  0  0  0  3  0  0  0  0  0  0
  1  2  1  0  0  0  0
  2  3  2  0  0  0  0
  4 26  1  0  0  0  0
  4  3  1  0  0  0  0
  5  4  2  0  0  0  0
  6  5  1  0  0  0  0
  6  1  2  0  0  0  0
  7  6  1  0  0  0  0
  8  9  1  0  0  0  0
  9 10  2  0  0  0  0
 11 10  1  0  0  0  0
 11 16  1  0  0  0  0
 12 11  2  0  0  0  0
 13  8  2  0  0  0  0
 13 12  1  0  0  0  0
 14 12  1  0  0  0  0
 14 15  2  0  0  0  0
 15  1  1  0  0  0  0
 15 16  1  0  0  0  0
 16 17  1  0  0  0  0
 17 18  1  0  0  0  0
 18 19  1  0  0  0  0
 20 19  1  0  0  0  0
 21 20  1  0  0  0  0
 22 17  1  0  0  0  0
 22 21  1  0  0  0  0
 23 24  2  0  0  0  0
 24 25  1  0  0  0  0
 24  8  1  0  0  0  0
 27 26  1  6  0  0  0
 27 35  1  0  0  0  0
 27 28  1  0  0  0  0
 28 34  1  0  0  0  0
 29 28  2  0  0  0  0
 29 30  1  0  0  0  0
 30 31  2  0  0  0  0
 31 33  1  0  0  0  0
 31 32  1  0  0  0  0
 34 33  2  0  0  0  0
 35 36  1  0  0  0  0
 36 37  2  0  0  0  0
 38 39  1  0  0  0  0
 38 37  1  0  0  0  0
 40 38  2  0  0  0  0
 41 40  1  0  0  0  0
 41 35  2  0  0  0  0
M  END
>  <minimizedAffinity>
-9.05465889

$$$$
