
 OpenBabel09132204463D

 30 32  0  0  0  0  0  0  0  0999 V2000
    4.5990   -4.8320    5.6420 C   0  0  0  0  0  0  0  0  0  0  0  0
    3.7180   -5.4520    6.4540 C   0  0  0  0  0  2  0  0  0  0  0  0
    3.6010   -5.3050    7.9090 C   0  0  0  0  0  0  0  0  0  0  0  0
    2.4060   -4.8330    8.4580 C   0  0  0  0  0  3  0  0  0  0  0  0
    2.2910   -4.6430    9.8380 C   0  0  0  0  0  3  0  0  0  0  0  0
    3.3690   -4.9270   10.6790 C   0  0  0  0  0  0  0  0  0  0  0  0
    4.5740   -5.3790   10.1340 C   0  0  0  0  0  3  0  0  0  0  0  0
    4.6850   -5.5690    8.7530 C   0  0  0  0  0  3  0  0  0  0  0  0
    3.1700   -4.6600   12.0180 O   0  0  0  0  0  0  0  0  0  0  0  0
    2.7400   -3.3990   12.3520 C   0  0  0  0  0  0  0  0  0  0  0  0
    3.5860   -2.3000   12.2050 C   0  0  0  0  0  0  0  0  0  0  0  0
    4.8250   -2.4560   11.7180 F   0  0  0  0  0  0  0  0  0  0  0  0
    3.1710   -1.0230   12.5740 C   0  0  0  0  0  3  0  0  0  0  0  0
    1.9000   -0.8370   13.1170 C   0  0  0  0  0  3  0  0  0  0  0  0
    1.0550   -1.9360   13.2950 C   0  0  0  0  0  3  0  0  0  0  0  0
    1.4770   -3.2160   12.9220 C   0  0  0  0  0  0  0  0  0  0  0  0
    0.4020   -4.5420   13.1770 Cl  0  0  0  0  0  0  0  0  0  0  0  0
    5.5990   -4.0120    6.1460 N   0  0  0  0  0  4  0  0  0  0  0  0
    5.5640   -2.7100    6.5920 C   0  0  0  0  0  0  0  0  0  0  0  0
    6.6220   -2.0900    6.7470 O   0  0  0  0  0  0  0  0  0  0  0  0
    6.5420   -4.3760    6.0970 H   0  0  0  0  0  0  0  0  0  0  0  0
    4.3070   -2.0500    7.0070 C   0  0  0  0  0  0  0  0  0  0  0  0
    4.1690   -1.6500    8.3410 C   0  0  0  0  0  3  0  0  0  0  0  0
    2.9670   -1.0930    8.7830 C   0  0  0  0  0  3  0  0  0  0  0  0
    1.8980   -0.9510    7.8970 C   0  0  0  0  0  3  0  0  0  0  0  0
    2.0260   -1.3730    6.5730 C   0  0  0  0  0  3  0  0  0  0  0  0
    3.2250   -1.9350    6.1290 C   0  0  0  0  0  3  0  0  0  0  0  0
    5.1650   -6.2100    3.7690 O   0  0  0  0  0  1  0  0  0  0  0  0
    4.4400   -5.2390    4.1390 C   0  0  0  0  0  0  0  0  0  0  0  0
    3.6390   -4.5200    3.4760 O   0  0  0  0  0  0  0  0  0  0  0  0
  1 18  2  0  0  0  0
  1  2  1  0  0  0  0
  2  3  1  0  0  0  0
  3  4  2  0  0  0  0
  3  8  1  0  0  0  0
  4  5  1  0  0  0  0
  5  6  2  0  0  0  0
  6  9  1  0  0  0  0
  7  6  1  0  0  0  0
  8  7  2  0  0  0  0
  9 10  1  0  0  0  0
 10 16  1  0  0  0  0
 11 10  2  0  0  0  0
 11 13  1  0  0  0  0
 12 11  1  0  0  0  0
 13 14  2  0  0  0  0
 14 15  1  0  0  0  0
 16 17  1  0  0  0  0
 16 15  2  0  0  0  0
 18 19  1  0  0  0  0
 19 20  2  0  0  0  0
 19 22  1  0  0  0  0
 21 18  1  0  0  0  0
 22 23  1  0  0  0  0
 23 24  2  0  0  0  0
 25 24  1  0  0  0  0
 26 25  2  0  0  0  0
 27 26  1  0  0  0  0
 27 22  2  0  0  0  0
 28 29  1  0  0  0  0
 29  1  1  0  0  0  0
 30 29  2  0  0  0  0
M  END
>  <minimizedAffinity>
-6.43062305

$$$$
