
 OpenBabel09132204463D

 30 32  0  0  0  0  0  0  0  0999 V2000
    4.6910   -4.7250    5.5990 C   0  0  0  0  0  0  0  0  0  0  0  0
    3.8260   -5.3970    6.3870 C   0  0  0  0  0  2  0  0  0  0  0  0
    3.7110   -5.3140    7.8470 C   0  0  0  0  0  0  0  0  0  0  0  0
    2.5140   -4.8720    8.4180 C   0  0  0  0  0  3  0  0  0  0  0  0
    2.4010   -4.7420    9.8050 C   0  0  0  0  0  3  0  0  0  0  0  0
    3.4820   -5.0560   10.6310 C   0  0  0  0  0  0  0  0  0  0  0  0
    4.6880   -5.4780   10.0650 C   0  0  0  0  0  3  0  0  0  0  0  0
    4.7980   -5.6080    8.6770 C   0  0  0  0  0  3  0  0  0  0  0  0
    3.2850   -4.8490   11.9810 O   0  0  0  0  0  0  0  0  0  0  0  0
    2.8740   -3.5980   12.3720 C   0  0  0  0  0  0  0  0  0  0  0  0
    1.5340   -3.3580   12.6830 C   0  0  0  0  0  0  0  0  0  0  0  0
    0.6340   -4.3490   12.6230 F   0  0  0  0  0  0  0  0  0  0  0  0
    1.1010   -2.0850   13.0450 C   0  0  0  0  0  3  0  0  0  0  0  0
    2.0090   -1.0280   13.0820 C   0  0  0  0  0  3  0  0  0  0  0  0
    3.3470   -1.2510   12.7440 C   0  0  0  0  0  3  0  0  0  0  0  0
    3.7770   -2.5320   12.3810 C   0  0  0  0  0  0  0  0  0  0  0  0
    5.4360   -2.7520   11.9590 Cl  0  0  0  0  0  0  0  0  0  0  0  0
    5.6740   -3.9050    6.1340 N   0  0  0  0  0  4  0  0  0  0  0  0
    5.6110   -2.6260    6.6410 C   0  0  0  0  0  0  0  0  0  0  0  0
    6.6550   -1.9890    6.8180 O   0  0  0  0  0  0  0  0  0  0  0  0
    6.6250   -4.2430    6.0620 H   0  0  0  0  0  0  0  0  0  0  0  0
    4.3420   -2.0180    7.0950 C   0  0  0  0  0  0  0  0  0  0  0  0
    4.2020   -1.6900    8.4490 C   0  0  0  0  0  3  0  0  0  0  0  0
    2.9910   -1.1840    8.9240 C   0  0  0  0  0  3  0  0  0  0  0  0
    1.9130   -1.0220    8.0510 C   0  0  0  0  0  3  0  0  0  0  0  0
    2.0440   -1.3720    6.7070 C   0  0  0  0  0  3  0  0  0  0  0  0
    3.2520   -1.8830    6.2300 C   0  0  0  0  0  3  0  0  0  0  0  0
    5.1690   -6.1020    3.7010 O   0  0  0  0  0  1  0  0  0  0  0  0
    4.5350   -5.0730    4.0810 C   0  0  0  0  0  0  0  0  0  0  0  0
    3.8300   -4.2580    3.4190 O   0  0  0  0  0  0  0  0  0  0  0  0
  1 18  2  0  0  0  0
  1  2  1  0  0  0  0
  2  3  1  0  0  0  0
  3  4  2  0  0  0  0
  3  8  1  0  0  0  0
  4  5  1  0  0  0  0
  5  6  2  0  0  0  0
  6  9  1  0  0  0  0
  7  6  1  0  0  0  0
  8  7  2  0  0  0  0
  9 10  1  0  0  0  0
 10 16  2  0  0  0  0
 10 11  1  0  0  0  0
 11 13  2  0  0  0  0
 12 11  1  0  0  0  0
 13 14  1  0  0  0  0
 15 14  2  0  0  0  0
 16 15  1  0  0  0  0
 17 16  1  0  0  0  0
 18 19  1  0  0  0  0
 19 20  2  0  0  0  0
 19 22  1  0  0  0  0
 21 18  1  0  0  0  0
 22 23  1  0  0  0  0
 23 24  2  0  0  0  0
 25 24  1  0  0  0  0
 26 25  2  0  0  0  0
 27 26  1  0  0  0  0
 27 22  2  0  0  0  0
 28 29  1  0  0  0  0
 29  1  1  0  0  0  0
 30 29  2  0  0  0  0
M  END
>  <minimizedAffinity>
-6.22464323

$$$$
