
 OpenBabel09122223593D

 30 32  0  0  0  0  0  0  0  0999 V2000
    4.5990   -4.8320    5.6420 C   0  0  0  0  0  0  0  0  0  0  0  0
    3.7180   -5.4520    6.4540 C   0  0  0  0  0  2  0  0  0  0  0  0
    3.6010   -5.3050    7.9090 C   0  0  0  0  0  0  0  0  0  0  0  0
    2.4060   -4.8330    8.4580 C   0  0  0  0  0  3  0  0  0  0  0  0
    2.2910   -4.6430    9.8380 C   0  0  0  0  0  3  0  0  0  0  0  0
    3.3690   -4.9270   10.6790 C   0  0  0  0  0  0  0  0  0  0  0  0
    4.5740   -5.3790   10.1340 C   0  0  0  0  0  3  0  0  0  0  0  0
    4.6850   -5.5690    8.7530 C   0  0  0  0  0  3  0  0  0  0  0  0
    3.1700   -4.6600   12.0180 O   0  0  0  0  0  0  0  0  0  0  0  0
    2.7400   -3.3990   12.3520 C   0  0  0  0  0  0  0  0  0  0  0  0
    3.5860   -2.3000   12.2050 C   0  0  0  0  0  0  0  0  0  0  0  0
    4.8250   -2.4560   11.7180 F   0  0  0  0  0  0  0  0  0  0  0  0
    3.1710   -1.0230   12.5740 C   0  0  0  0  0  3  0  0  0  0  0  0
    1.9000   -0.8370   13.1170 C   0  0  0  0  0  3  0  0  0  0  0  0
    1.0550   -1.9360   13.2950 C   0  0  0  0  0  3  0  0  0  0  0  0
    1.4770   -3.2160   12.9220 C   0  0  0  0  0  0  0  0  0  0  0  0
    0.4020   -4.5420   13.1770 Cl  0  0  0  0  0  0  0  0  0  0  0  0
    5.5990   -4.0120    6.1460 N   0  0  0  0  0  4  0  0  0  0  0  0
    5.5640   -2.7100    6.5920 C   0  0  0  0  0  0  0  0  0  0  0  0
    6.6220   -2.0900    6.7470 O   0  0  0  0  0  0  0  0  0  0  0  0
    6.5420   -4.3760    6.0970 H   0  0  0  0  0  0  0  0  0  0  0  0
    4.3070   -2.0500    7.0070 C   0  0  0  0  0  0  0  0  0  0  0  0
    4.1690   -1.6500    8.3410 C   0  0  0  0  0  3  0  0  0  0  0  0
    2.9670   -1.0930    8.7830 C   0  0  0  0  0  3  0  0  0  0  0  0
    1.8980   -0.9510    7.8970 C   0  0  0  0  0  3  0  0  0  0  0  0
    2.0260   -1.3730    6.5730 C   0  0  0  0  0  3  0  0  0  0  0  0
    3.2250   -1.9350    6.1290 C   0  0  0  0  0  3  0  0  0  0  0  0
    5.1650   -6.2100    3.7690 O   0  0  0  0  0  1  0  0  0  0  0  0
    4.4400   -5.2390    4.1390 C   0  0  0  0  0  0  0  0  0  0  0  0
    3.6390   -4.5200    3.4760 O   0  0  0  0  0  0  0  0  0  0  0  0
  1 18  2  0  0  0  0
  1  2  1  0  0  0  0
  2  3  1  0  0  0  0
  3  4  2  0  0  0  0
  3  8  1  0  0  0  0
  4  5  1  0  0  0  0
  5  6  2  0  0  0  0
  6  9  1  0  0  0  0
  7  6  1  0  0  0  0
  8  7  2  0  0  0  0
  9 10  1  0  0  0  0
 10 16  1  0  0  0  0
 11 10  2  0  0  0  0
 11 13  1  0  0  0  0
 12 11  1  0  0  0  0
 13 14  2  0  0  0  0
 14 15  1  0  0  0  0
 16 17  1  0  0  0  0
 16 15  2  0  0  0  0
 18 19  1  0  0  0  0
 19 20  2  0  0  0  0
 19 22  1  0  0  0  0
 21 18  1  0  0  0  0
 22 23  1  0  0  0  0
 23 24  2  0  0  0  0
 25 24  1  0  0  0  0
 26 25  2  0  0  0  0
 27 26  1  0  0  0  0
 27 22  2  0  0  0  0
 28 29  1  0  0  0  0
 29  1  1  0  0  0  0
 30 29  2  0  0  0  0
M  END
>  <minimizedAffinity>
-6.43062305

$$$$

 OpenBabel09122223593D

 30 32  0  0  0  0  0  0  0  0999 V2000
    3.2940   -0.4780   10.1900 C   0  0  0  0  0  0  0  0  0  0  0  0
    3.8860   -0.3590    8.9840 C   0  0  0  0  0  2  0  0  0  0  0  0
    3.5780   -1.1200    7.7690 C   0  0  0  0  0  0  0  0  0  0  0  0
    2.3210   -0.9840    7.1720 C   0  0  0  0  0  3  0  0  0  0  0  0
    1.9930   -1.7350    6.0400 C   0  0  0  0  0  3  0  0  0  0  0  0
    2.9200   -2.6260    5.4940 C   0  0  0  0  0  0  0  0  0  0  0  0
    4.1700   -2.7820    6.0980 C   0  0  0  0  0  3  0  0  0  0  0  0
    4.4960   -2.0280    7.2300 C   0  0  0  0  0  3  0  0  0  0  0  0
    2.4820   -3.3540    4.4070 O   0  0  0  0  0  0  0  0  0  0  0  0
    3.2250   -4.4510    4.0450 C   0  0  0  0  0  0  0  0  0  0  0  0
    4.2930   -4.3210    3.1560 C   0  0  0  0  0  0  0  0  0  0  0  0
    4.6210   -3.1210    2.6580 F   0  0  0  0  0  0  0  0  0  0  0  0
    5.0290   -5.4330    2.7550 C   0  0  0  0  0  3  0  0  0  0  0  0
    4.6880   -6.6980    3.2300 C   0  0  0  0  0  3  0  0  0  0  0  0
    3.6030   -6.8440    4.0980 C   0  0  0  0  0  3  0  0  0  0  0  0
    2.8670   -5.7240    4.4980 C   0  0  0  0  0  0  0  0  0  0  0  0
    1.5260   -5.9590    5.5590 Cl  0  0  0  0  0  0  0  0  0  0  0  0
    2.3370   -1.4530   10.4380 N   0  0  0  0  0  4  0  0  0  0  0  0
    2.4200   -2.8270   10.4340 C   0  0  0  0  0  0  0  0  0  0  0  0
    1.3850   -3.5010   10.4200 O   0  0  0  0  0  0  0  0  0  0  0  0
    1.3860   -1.1260   10.5470 H   0  0  0  0  0  0  0  0  0  0  0  0
    3.7100   -3.5410   10.5620 C   0  0  0  0  0  0  0  0  0  0  0  0
    3.9730   -4.6100    9.6980 C   0  0  0  0  0  3  0  0  0  0  0  0
    5.1470   -5.3520    9.8420 C   0  0  0  0  0  3  0  0  0  0  0  0
    6.0490   -5.0380   10.8600 C   0  0  0  0  0  3  0  0  0  0  0  0
    5.7750   -3.9890   11.7380 C   0  0  0  0  0  3  0  0  0  0  0  0
    4.6000   -3.2480   11.6000 C   0  0  0  0  0  3  0  0  0  0  0  0
    3.7670    0.1020   12.4630 O   0  0  0  0  0  1  0  0  0  0  0  0
    3.8890    0.4930   11.2640 C   0  0  0  0  0  0  0  0  0  0  0  0
    4.3770    1.5630   10.8010 O   0  0  0  0  0  0  0  0  0  0  0  0
  1 18  2  0  0  0  0
  1 29  1  0  0  0  0
  2  1  1  0  0  0  0
  3  2  1  0  0  0  0
  4  3  2  0  0  0  0
  5  4  1  0  0  0  0
  6  5  2  0  0  0  0
  6  7  1  0  0  0  0
  7  8  2  0  0  0  0
  8  3  1  0  0  0  0
  9  6  1  0  0  0  0
 10  9  1  0  0  0  0
 10 16  1  0  0  0  0
 11 10  2  0  0  0  0
 12 11  1  0  0  0  0
 13 11  1  0  0  0  0
 13 14  2  0  0  0  0
 14 15  1  0  0  0  0
 15 16  2  0  0  0  0
 16 17  1  0  0  0  0
 18 21  1  0  0  0  0
 19 18  1  0  0  0  0
 19 22  1  0  0  0  0
 20 19  2  0  0  0  0
 22 27  1  0  0  0  0
 23 24  1  0  0  0  0
 23 22  2  0  0  0  0
 24 25  2  0  0  0  0
 25 26  1  0  0  0  0
 27 26  2  0  0  0  0
 29 28  1  0  0  0  0
 30 29  2  0  0  0  0
M  END
>  <minimizedAffinity>
-6.3297267

$$$$

 OpenBabel09122223593D

 30 32  0  0  0  0  0  0  0  0999 V2000
    4.7530   -0.5940   10.6050 C   0  0  0  0  0  0  0  0  0  0  0  0
    4.0010   -0.1260    9.5880 C   0  0  0  0  0  2  0  0  0  0  0  0
    3.6060   -0.8490    8.3740 C   0  0  0  0  0  0  0  0  0  0  0  0
    2.2490   -1.0200    8.0870 C   0  0  0  0  0  3  0  0  0  0  0  0
    1.8530   -1.7460    6.9600 C   0  0  0  0  0  3  0  0  0  0  0  0
    2.8100   -2.3030    6.1100 C   0  0  0  0  0  0  0  0  0  0  0  0
    4.1680   -2.1540    6.4030 C   0  0  0  0  0  3  0  0  0  0  0  0
    4.5620   -1.4260    7.5300 C   0  0  0  0  0  3  0  0  0  0  0  0
    2.3170   -3.0400    5.0530 O   0  0  0  0  0  0  0  0  0  0  0  0
    3.1250   -4.0260    4.5420 C   0  0  0  0  0  0  0  0  0  0  0  0
    3.9730   -3.7600    3.4670 C   0  0  0  0  0  0  0  0  0  0  0  0
    4.0250   -2.5330    2.9290 F   0  0  0  0  0  0  0  0  0  0  0  0
    4.7700   -4.7620    2.9190 C   0  0  0  0  0  3  0  0  0  0  0  0
    4.7100   -6.0560    3.4360 C   0  0  0  0  0  3  0  0  0  0  0  0
    3.8430   -6.3400    4.4940 C   0  0  0  0  0  3  0  0  0  0  0  0
    3.0450   -5.3290    5.0410 C   0  0  0  0  0  0  0  0  0  0  0  0
    1.9800   -5.7350    6.3370 Cl  0  0  0  0  0  0  0  0  0  0  0  0
    5.3340   -1.8540   10.5600 N   0  0  0  0  0  4  0  0  0  0  0  0
    4.8490   -3.0900   10.9250 C   0  0  0  0  0  0  0  0  0  0  0  0
    5.6300   -4.0390   11.0480 O   0  0  0  0  0  0  0  0  0  0  0  0
    6.3140   -1.8850   10.3110 H   0  0  0  0  0  0  0  0  0  0  0  0
    3.4010   -3.3610   11.0660 C   0  0  0  0  0  0  0  0  0  0  0  0
    2.7360   -4.0120   10.0210 C   0  0  0  0  0  3  0  0  0  0  0  0
    1.3570   -4.2150   10.0890 C   0  0  0  0  0  3  0  0  0  0  0  0
    0.6380   -3.7530   11.1930 C   0  0  0  0  0  3  0  0  0  0  0  0
    1.2960   -3.0800   12.2240 C   0  0  0  0  0  3  0  0  0  0  0  0
    2.6750   -2.8710   12.1550 C   0  0  0  0  0  3  0  0  0  0  0  0
    4.3000    0.2790   12.7860 O   0  0  0  0  0  1  0  0  0  0  0  0
    4.9840    0.4640   11.7350 C   0  0  0  0  0  0  0  0  0  0  0  0
    5.7900    1.3910   11.4380 O   0  0  0  0  0  0  0  0  0  0  0  0
  1 29  1  0  0  0  0
  2  1  1  0  0  0  0
  3  2  1  0  0  0  0
  4  3  1  0  0  0  0
  5  4  2  0  0  0  0
  6  7  2  0  0  0  0
  6  5  1  0  0  0  0
  7  8  1  0  0  0  0
  8  3  2  0  0  0  0
  9  6  1  0  0  0  0
 10 16  1  0  0  0  0
 10  9  1  0  0  0  0
 11 10  2  0  0  0  0
 12 11  1  0  0  0  0
 13 14  2  0  0  0  0
 13 11  1  0  0  0  0
 14 15  1  0  0  0  0
 15 16  2  0  0  0  0
 16 17  1  0  0  0  0
 18  1  2  0  0  0  0
 18 19  1  0  0  0  0
 19 20  2  0  0  0  0
 19 22  1  0  0  0  0
 21 18  1  0  0  0  0
 22 27  1  0  0  0  0
 23 24  1  0  0  0  0
 23 22  2  0  0  0  0
 24 25  2  0  0  0  0
 25 26  1  0  0  0  0
 27 26  2  0  0  0  0
 29 28  1  0  0  0  0
 30 29  2  0  0  0  0
M  END
>  <minimizedAffinity>
-6.31124115

$$$$

 OpenBabel09122223593D

 30 32  0  0  0  0  0  0  0  0999 V2000
    5.0670   -6.0320    1.1230 C   0  0  0  0  0  0  0  0  0  0  0  0
    4.2900   -5.2630    1.9120 C   0  0  0  0  0  2  0  0  0  0  0  0
    4.4830   -4.9810    3.3390 C   0  0  0  0  0  0  0  0  0  0  0  0
    3.7000   -5.6480    4.2840 C   0  0  0  0  0  3  0  0  0  0  0  0
    3.8380   -5.3600    5.6450 C   0  0  0  0  0  3  0  0  0  0  0  0
    4.7620   -4.4040    6.0700 C   0  0  0  0  0  0  0  0  0  0  0  0
    5.5340   -3.7170    5.1290 C   0  0  0  0  0  3  0  0  0  0  0  0
    5.3950   -4.0090    3.7690 C   0  0  0  0  0  3  0  0  0  0  0  0
    4.7880   -4.1570    7.4280 O   0  0  0  0  0  0  0  0  0  0  0  0
    4.0010   -3.1330    7.8960 C   0  0  0  0  0  0  0  0  0  0  0  0
    4.4430   -1.8110    7.8240 C   0  0  0  0  0  0  0  0  0  0  0  0
    5.6320   -1.5200    7.2790 F   0  0  0  0  0  0  0  0  0  0  0  0
    3.6680   -0.7700    8.3290 C   0  0  0  0  0  3  0  0  0  0  0  0
    2.4430   -1.0480    8.9330 C   0  0  0  0  0  3  0  0  0  0  0  0
    2.0040   -2.3700    9.0370 C   0  0  0  0  0  3  0  0  0  0  0  0
    2.7860   -3.4130    8.5280 C   0  0  0  0  0  0  0  0  0  0  0  0
    2.2080   -5.0300    8.6940 Cl  0  0  0  0  0  0  0  0  0  0  0  0
    6.1420   -6.7460    1.6340 N   0  0  0  0  0  4  0  0  0  0  0  0
    7.5000   -6.5420    1.5270 C   0  0  0  0  0  0  0  0  0  0  0  0
    8.2790   -7.4480    1.8380 O   0  0  0  0  0  0  0  0  0  0  0  0
    5.9210   -7.6240    2.0850 H   0  0  0  0  0  0  0  0  0  0  0  0
    8.0750   -5.2290    1.1610 C   0  0  0  0  0  0  0  0  0  0  0  0
    8.6120   -5.0670   -0.1210 C   0  0  0  0  0  3  0  0  0  0  0  0
    9.2300   -3.8650   -0.4730 C   0  0  0  0  0  3  0  0  0  0  0  0
    9.3260   -2.8320    0.4600 C   0  0  0  0  0  3  0  0  0  0  0  0
    8.8130   -3.0010    1.7470 C   0  0  0  0  0  3  0  0  0  0  0  0
    8.2000   -4.2040    2.1030 C   0  0  0  0  0  3  0  0  0  0  0  0
    4.9740   -7.1130   -1.0100 O   0  0  0  0  0  0  0  0  0  0  0  0
    4.5500   -6.1170   -0.3520 C   0  0  0  0  0  0  0  0  0  0  0  0
    3.8090   -5.1580   -0.7110 O   0  0  0  0  0  1  0  0  0  0  0  0
  1 18  2  0  0  0  0
  1  2  1  0  0  0  0
  2  3  1  0  0  0  0
  3  8  2  0  0  0  0
  3  4  1  0  0  0  0
  4  5  2  0  0  0  0
  5  6  1  0  0  0  0
  6  9  1  0  0  0  0
  7  6  2  0  0  0  0
  8  7  1  0  0  0  0
  9 10  1  0  0  0  0
 10 16  1  0  0  0  0
 11 10  2  0  0  0  0
 11 13  1  0  0  0  0
 12 11  1  0  0  0  0
 13 14  2  0  0  0  0
 14 15  1  0  0  0  0
 16 17  1  0  0  0  0
 16 15  2  0  0  0  0
 18 21  1  0  0  0  0
 19 18  1  0  0  0  0
 19 20  2  0  0  0  0
 22 19  1  0  0  0  0
 22 27  1  0  0  0  0
 23 22  2  0  0  0  0
 24 23  1  0  0  0  0
 24 25  2  0  0  0  0
 25 26  1  0  0  0  0
 26 27  2  0  0  0  0
 28 29  2  0  0  0  0
 29  1  1  0  0  0  0
 30 29  1  0  0  0  0
M  END
>  <minimizedAffinity>
-6.23787737

$$$$

 OpenBabel09122223593D

 30 32  0  0  0  0  0  0  0  0999 V2000
    4.6910   -4.7250    5.5990 C   0  0  0  0  0  0  0  0  0  0  0  0
    3.8260   -5.3970    6.3870 C   0  0  0  0  0  2  0  0  0  0  0  0
    3.7110   -5.3140    7.8470 C   0  0  0  0  0  0  0  0  0  0  0  0
    2.5140   -4.8720    8.4180 C   0  0  0  0  0  3  0  0  0  0  0  0
    2.4010   -4.7420    9.8050 C   0  0  0  0  0  3  0  0  0  0  0  0
    3.4820   -5.0560   10.6310 C   0  0  0  0  0  0  0  0  0  0  0  0
    4.6880   -5.4780   10.0650 C   0  0  0  0  0  3  0  0  0  0  0  0
    4.7980   -5.6080    8.6770 C   0  0  0  0  0  3  0  0  0  0  0  0
    3.2850   -4.8490   11.9810 O   0  0  0  0  0  0  0  0  0  0  0  0
    2.8740   -3.5980   12.3720 C   0  0  0  0  0  0  0  0  0  0  0  0
    1.5340   -3.3580   12.6830 C   0  0  0  0  0  0  0  0  0  0  0  0
    0.6340   -4.3490   12.6230 F   0  0  0  0  0  0  0  0  0  0  0  0
    1.1010   -2.0850   13.0450 C   0  0  0  0  0  3  0  0  0  0  0  0
    2.0090   -1.0280   13.0820 C   0  0  0  0  0  3  0  0  0  0  0  0
    3.3470   -1.2510   12.7440 C   0  0  0  0  0  3  0  0  0  0  0  0
    3.7770   -2.5320   12.3810 C   0  0  0  0  0  0  0  0  0  0  0  0
    5.4360   -2.7520   11.9590 Cl  0  0  0  0  0  0  0  0  0  0  0  0
    5.6740   -3.9050    6.1340 N   0  0  0  0  0  4  0  0  0  0  0  0
    5.6110   -2.6260    6.6410 C   0  0  0  0  0  0  0  0  0  0  0  0
    6.6550   -1.9890    6.8180 O   0  0  0  0  0  0  0  0  0  0  0  0
    6.6250   -4.2430    6.0620 H   0  0  0  0  0  0  0  0  0  0  0  0
    4.3420   -2.0180    7.0950 C   0  0  0  0  0  0  0  0  0  0  0  0
    4.2020   -1.6900    8.4490 C   0  0  0  0  0  3  0  0  0  0  0  0
    2.9910   -1.1840    8.9240 C   0  0  0  0  0  3  0  0  0  0  0  0
    1.9130   -1.0220    8.0510 C   0  0  0  0  0  3  0  0  0  0  0  0
    2.0440   -1.3720    6.7070 C   0  0  0  0  0  3  0  0  0  0  0  0
    3.2520   -1.8830    6.2300 C   0  0  0  0  0  3  0  0  0  0  0  0
    5.1690   -6.1020    3.7010 O   0  0  0  0  0  1  0  0  0  0  0  0
    4.5350   -5.0730    4.0810 C   0  0  0  0  0  0  0  0  0  0  0  0
    3.8300   -4.2580    3.4190 O   0  0  0  0  0  0  0  0  0  0  0  0
  1 18  2  0  0  0  0
  1  2  1  0  0  0  0
  2  3  1  0  0  0  0
  3  4  2  0  0  0  0
  3  8  1  0  0  0  0
  4  5  1  0  0  0  0
  5  6  2  0  0  0  0
  6  9  1  0  0  0  0
  7  6  1  0  0  0  0
  8  7  2  0  0  0  0
  9 10  1  0  0  0  0
 10 16  2  0  0  0  0
 10 11  1  0  0  0  0
 11 13  2  0  0  0  0
 12 11  1  0  0  0  0
 13 14  1  0  0  0  0
 15 14  2  0  0  0  0
 16 15  1  0  0  0  0
 17 16  1  0  0  0  0
 18 19  1  0  0  0  0
 19 20  2  0  0  0  0
 19 22  1  0  0  0  0
 21 18  1  0  0  0  0
 22 23  1  0  0  0  0
 23 24  2  0  0  0  0
 25 24  1  0  0  0  0
 26 25  2  0  0  0  0
 27 26  1  0  0  0  0
 27 22  2  0  0  0  0
 28 29  1  0  0  0  0
 29  1  1  0  0  0  0
 30 29  2  0  0  0  0
M  END
>  <minimizedAffinity>
-6.22464323

$$$$

 OpenBabel09122223593D

 30 32  0  0  0  0  0  0  0  0999 V2000
    3.2920   -2.0970    6.4170 C   0  0  0  0  0  0  0  0  0  0  0  0
    2.7660   -3.0110    5.5760 C   0  0  0  0  0  2  0  0  0  0  0  0
    3.4980   -3.9180    4.6850 C   0  0  0  0  0  0  0  0  0  0  0  0
    3.8160   -5.2060    5.1260 C   0  0  0  0  0  3  0  0  0  0  0  0
    4.5530   -6.0680    4.3090 C   0  0  0  0  0  3  0  0  0  0  0  0
    4.9740   -5.6510    3.0450 C   0  0  0  0  0  0  0  0  0  0  0  0
    4.6770   -4.3580    2.6070 C   0  0  0  0  0  3  0  0  0  0  0  0
    3.9390   -3.4980    3.4250 C   0  0  0  0  0  3  0  0  0  0  0  0
    5.7350   -6.5590    2.3380 O   0  0  0  0  0  0  0  0  0  0  0  0
    6.3250   -6.1170    1.1780 C   0  0  0  0  0  0  0  0  0  0  0  0
    7.4750   -5.3290    1.2250 C   0  0  0  0  0  0  0  0  0  0  0  0
    8.0320   -5.0070    2.4010 F   0  0  0  0  0  0  0  0  0  0  0  0
    8.0590   -4.8460    0.0570 C   0  0  0  0  0  3  0  0  0  0  0  0
    7.4810   -5.1360   -1.1780 C   0  0  0  0  0  3  0  0  0  0  0  0
    6.3130   -5.9000   -1.2350 C   0  0  0  0  0  3  0  0  0  0  0  0
    5.7300   -6.3830   -0.0580 C   0  0  0  0  0  0  0  0  0  0  0  0
    4.2790   -7.3090   -0.1800 Cl  0  0  0  0  0  0  0  0  0  0  0  0
    4.6580   -1.8490    6.4600 N   0  0  0  0  0  4  0  0  0  0  0  0
    5.6100   -2.1800    7.3980 C   0  0  0  0  0  0  0  0  0  0  0  0
    6.7150   -1.6300    7.3650 O   0  0  0  0  0  0  0  0  0  0  0  0
    5.0240   -1.2410    5.7400 H   0  0  0  0  0  0  0  0  0  0  0  0
    5.4030   -3.2620    8.3860 C   0  0  0  0  0  0  0  0  0  0  0  0
    5.6350   -4.5840    7.9900 C   0  0  0  0  0  3  0  0  0  0  0  0
    5.3780   -5.6340    8.8740 C   0  0  0  0  0  3  0  0  0  0  0  0
    4.8720   -5.3640   10.1470 C   0  0  0  0  0  3  0  0  0  0  0  0
    4.6160   -4.0480   10.5340 C   0  0  0  0  0  3  0  0  0  0  0  0
    4.8680   -2.9970    9.6500 C   0  0  0  0  0  3  0  0  0  0  0  0
    1.9080   -1.7770    8.3420 O   0  0  0  0  0  1  0  0  0  0  0  0
    2.2060   -1.2950    7.2080 C   0  0  0  0  0  0  0  0  0  0  0  0
    1.7360   -0.2930    6.5990 O   0  0  0  0  0  0  0  0  0  0  0  0
  1 18  2  0  0  0  0
  1 29  1  0  0  0  0
  2  1  1  0  0  0  0
  3  4  1  0  0  0  0
  3  2  1  0  0  0  0
  5  4  2  0  0  0  0
  6  5  1  0  0  0  0
  7  6  2  0  0  0  0
  7  8  1  0  0  0  0
  8  3  2  0  0  0  0
  9  6  1  0  0  0  0
 10 11  1  0  0  0  0
 10  9  1  0  0  0  0
 11 12  1  0  0  0  0
 13 11  2  0  0  0  0
 14 13  1  0  0  0  0
 15 14  2  0  0  0  0
 15 16  1  0  0  0  0
 16 10  2  0  0  0  0
 17 16  1  0  0  0  0
 18 19  1  0  0  0  0
 19 22  1  0  0  0  0
 20 19  2  0  0  0  0
 21 18  1  0  0  0  0
 22 27  1  0  0  0  0
 23 22  2  0  0  0  0
 23 24  1  0  0  0  0
 24 25  2  0  0  0  0
 25 26  1  0  0  0  0
 27 26  2  0  0  0  0
 29 28  1  0  0  0  0
 30 29  2  0  0  0  0
M  END
>  <minimizedAffinity>
-6.17457867

$$$$

 OpenBabel09122223593D

 30 32  0  0  0  0  0  0  0  0999 V2000
    4.3520    0.0510    9.6780 C   0  0  0  0  0  0  0  0  0  0  0  0
    3.2650   -0.7040    9.4140 C   0  0  0  0  0  2  0  0  0  0  0  0
    3.0210   -1.5150    8.2170 C   0  0  0  0  0  0  0  0  0  0  0  0
    2.3700   -0.9450    7.1200 C   0  0  0  0  0  3  0  0  0  0  0  0
    2.0880   -1.7150    5.9880 C   0  0  0  0  0  3  0  0  0  0  0  0
    2.4580   -3.0600    5.9440 C   0  0  0  0  0  0  0  0  0  0  0  0
    3.0910   -3.6430    7.0450 C   0  0  0  0  0  3  0  0  0  0  0  0
    3.3730   -2.8700    8.1760 C   0  0  0  0  0  3  0  0  0  0  0  0
    2.0920   -3.7450    4.8030 O   0  0  0  0  0  0  0  0  0  0  0  0
    3.0310   -4.5740    4.2380 C   0  0  0  0  0  0  0  0  0  0  0  0
    4.0100   -4.0580    3.3890 C   0  0  0  0  0  0  0  0  0  0  0  0
    4.0610   -2.7440    3.1270 F   0  0  0  0  0  0  0  0  0  0  0  0
    4.9440   -4.8950    2.7820 C   0  0  0  0  0  3  0  0  0  0  0  0
    4.8930   -6.2700    3.0090 C   0  0  0  0  0  3  0  0  0  0  0  0
    3.8980   -6.8000    3.8350 C   0  0  0  0  0  3  0  0  0  0  0  0
    2.9630   -5.9550    4.4420 C   0  0  0  0  0  0  0  0  0  0  0  0
    1.7450   -6.6600    5.4400 Cl  0  0  0  0  0  0  0  0  0  0  0  0
    5.3690    0.2120    8.7460 N   0  0  0  0  0  4  0  0  0  0  0  0
    6.5620   -0.4550    8.5830 C   0  0  0  0  0  0  0  0  0  0  0  0
    7.4350    0.0270    7.8540 O   0  0  0  0  0  0  0  0  0  0  0  0
    5.2880    1.0110    8.1320 H   0  0  0  0  0  0  0  0  0  0  0  0
    6.8030   -1.7970    9.1580 C   0  0  0  0  0  0  0  0  0  0  0  0
    6.9650   -1.9130   10.5430 C   0  0  0  0  0  3  0  0  0  0  0  0
    7.2690   -3.1530   11.1100 C   0  0  0  0  0  3  0  0  0  0  0  0
    7.4280   -4.2720   10.2910 C   0  0  0  0  0  3  0  0  0  0  0  0
    7.2910   -4.1530    8.9080 C   0  0  0  0  0  3  0  0  0  0  0  0
    6.9930   -2.9130    8.3380 C   0  0  0  0  0  3  0  0  0  0  0  0
    4.5450    2.0270   11.0130 O   0  0  0  0  0  0  0  0  0  0  0  0
    4.2650    0.7920   11.0540 C   0  0  0  0  0  0  0  0  0  0  0  0
    3.9680    0.0550   12.0360 O   0  0  0  0  0  1  0  0  0  0  0  0
  1 29  1  0  0  0  0
  2  1  1  0  0  0  0
  3  2  1  0  0  0  0
  4  3  2  0  0  0  0
  5  4  1  0  0  0  0
  6  5  2  0  0  0  0
  6  7  1  0  0  0  0
  7  8  2  0  0  0  0
  8  3  1  0  0  0  0
  9  6  1  0  0  0  0
 10 16  1  0  0  0  0
 10  9  1  0  0  0  0
 11 10  2  0  0  0  0
 12 11  1  0  0  0  0
 13 14  2  0  0  0  0
 13 11  1  0  0  0  0
 14 15  1  0  0  0  0
 15 16  2  0  0  0  0
 16 17  1  0  0  0  0
 18  1  2  3  0  0  0
 19 18  1  0  0  0  0
 19 22  1  0  0  0  0
 20 19  2  0  0  0  0
 21 18  1  0  0  0  0
 22 23  1  0  0  0  0
 23 24  2  0  0  0  0
 25 24  1  0  0  0  0
 26 25  2  0  0  0  0
 27 26  1  0  0  0  0
 27 22  2  0  0  0  0
 28 29  2  0  0  0  0
 29 30  1  0  0  0  0
M  END
>  <minimizedAffinity>
-6.10471487

$$$$

 OpenBabel09122223593D

 30 32  0  0  0  0  0  0  0  0999 V2000
    3.3440   -2.9170    5.8980 C   0  0  0  0  0  0  0  0  0  0  0  0
    3.2660   -1.6860    6.4430 C   0  0  0  0  0  2  0  0  0  0  0  0
    3.4680   -1.3270    7.8510 C   0  0  0  0  0  0  0  0  0  0  0  0
    2.4140   -1.4780    8.7570 C   0  0  0  0  0  3  0  0  0  0  0  0
    2.5740   -1.0990   10.0930 C   0  0  0  0  0  3  0  0  0  0  0  0
    3.7880   -0.5680   10.5330 C   0  0  0  0  0  0  0  0  0  0  0  0
    4.8380   -0.3950    9.6280 C   0  0  0  0  0  3  0  0  0  0  0  0
    4.6770   -0.7760    8.2930 C   0  0  0  0  0  3  0  0  0  0  0  0
    3.8270   -0.1810   11.8570 O   0  0  0  0  0  0  0  0  0  0  0  0
    4.8620    0.6370   12.2420 C   0  0  0  0  0  0  0  0  0  0  0  0
    4.8700    1.9850   11.8830 C   0  0  0  0  0  0  0  0  0  0  0  0
    3.8600    2.5060   11.1720 F   0  0  0  0  0  0  0  0  0  0  0  0
    5.9320    2.8130   12.2380 C   0  0  0  0  0  3  0  0  0  0  0  0
    7.0130    2.2900   12.9460 C   0  0  0  0  0  3  0  0  0  0  0  0
    7.0280    0.9340   13.2860 C   0  0  0  0  0  3  0  0  0  0  0  0
    5.9590    0.1070   12.9270 C   0  0  0  0  0  0  0  0  0  0  0  0
    6.0320   -1.5630   13.3570 Cl  0  0  0  0  0  0  0  0  0  0  0  0
    3.5510   -4.0460    6.6790 N   0  0  0  0  0  4  0  0  0  0  0  0
    4.7110   -4.6580    7.1000 C   0  0  0  0  0  0  0  0  0  0  0  0
    4.6620   -5.8010    7.5650 O   0  0  0  0  0  0  0  0  0  0  0  0
    2.7270   -4.5840    6.9120 H   0  0  0  0  0  0  0  0  0  0  0  0
    6.0110   -3.9540    7.1250 C   0  0  0  0  0  0  0  0  0  0  0  0
    6.6530   -3.7750    8.3560 C   0  0  0  0  0  3  0  0  0  0  0  0
    7.8440   -3.0500    8.4250 C   0  0  0  0  0  3  0  0  0  0  0  0
    8.3850   -2.4880    7.2670 C   0  0  0  0  0  3  0  0  0  0  0  0
    7.7330   -2.6430    6.0430 C   0  0  0  0  0  3  0  0  0  0  0  0
    6.5390   -3.3640    5.9730 C   0  0  0  0  0  3  0  0  0  0  0  0
    2.0300   -2.2770    4.0040 O   0  0  0  0  0  1  0  0  0  0  0  0
    3.0580   -2.9270    4.3590 C   0  0  0  0  0  0  0  0  0  0  0  0
    3.8650   -3.6160    3.6730 O   0  0  0  0  0  0  0  0  0  0  0  0
  1  2  1  0  0  0  0
  1 18  2  0  0  0  0
  2  3  1  0  0  0  0
  3  8  2  0  0  0  0
  3  4  1  0  0  0  0
  4  5  2  0  0  0  0
  5  6  1  0  0  0  0
  6  9  1  0  0  0  0
  7  6  2  0  0  0  0
  8  7  1  0  0  0  0
  9 10  1  0  0  0  0
 10 16  1  0  0  0  0
 11 13  1  0  0  0  0
 11 10  2  0  0  0  0
 12 11  1  0  0  0  0
 13 14  2  0  0  0  0
 14 15  1  0  0  0  0
 16 15  2  0  0  0  0
 16 17  1  0  0  0  0
 18 21  1  0  0  0  0
 18 19  1  0  0  0  0
 19 22  1  0  0  0  0
 19 20  2  0  0  0  0
 22 23  1  0  0  0  0
 23 24  2  0  0  0  0
 25 24  1  0  0  0  0
 26 25  2  0  0  0  0
 27 26  1  0  0  0  0
 27 22  2  0  0  0  0
 28 29  1  0  0  0  0
 29  1  1  0  0  0  0
 30 29  2  0  0  0  0
M  END
>  <minimizedAffinity>
-6.02645636

$$$$

 OpenBabel09122223593D

 30 32  0  0  0  0  0  0  0  0999 V2000
    3.2270   -0.6100   10.0190 C   0  0  0  0  0  0  0  0  0  0  0  0
    3.8890   -0.5240    8.8470 C   0  0  0  0  0  2  0  0  0  0  0  0
    3.6190   -1.2850    7.6220 C   0  0  0  0  0  0  0  0  0  0  0  0
    4.6280   -2.0790    7.0700 C   0  0  0  0  0  3  0  0  0  0  0  0
    4.4050   -2.7750    5.8790 C   0  0  0  0  0  3  0  0  0  0  0  0
    3.1710   -2.6840    5.2320 C   0  0  0  0  0  0  0  0  0  0  0  0
    2.1650   -1.8750    5.7670 C   0  0  0  0  0  3  0  0  0  0  0  0
    2.3900   -1.1810    6.9600 C   0  0  0  0  0  3  0  0  0  0  0  0
    3.0670   -3.3700    4.0390 O   0  0  0  0  0  0  0  0  0  0  0  0
    3.2590   -4.7290    4.0750 C   0  0  0  0  0  0  0  0  0  0  0  0
    2.3450   -5.5550    4.7310 C   0  0  0  0  0  0  0  0  0  0  0  0
    1.2580   -5.0360    5.3170 F   0  0  0  0  0  0  0  0  0  0  0  0
    2.5500   -6.9310    4.8040 C   0  0  0  0  0  3  0  0  0  0  0  0
    3.6910   -7.4940    4.2330 C   0  0  0  0  0  3  0  0  0  0  0  0
    4.6270   -6.6720    3.5990 C   0  0  0  0  0  3  0  0  0  0  0  0
    4.4160   -5.2910    3.5280 C   0  0  0  0  0  0  0  0  0  0  0  0
    5.6090   -4.3170    2.7490 Cl  0  0  0  0  0  0  0  0  0  0  0  0
    2.2200   -1.5450   10.2200 N   0  0  0  0  0  4  0  0  0  0  0  0
    2.2470   -2.9210   10.2090 C   0  0  0  0  0  0  0  0  0  0  0  0
    1.1860   -3.5510   10.1480 O   0  0  0  0  0  0  0  0  0  0  0  0
    1.2800   -1.1790   10.2930 H   0  0  0  0  0  0  0  0  0  0  0  0
    3.4990   -3.6890   10.3860 C   0  0  0  0  0  0  0  0  0  0  0  0
    4.3210   -3.3890   11.4780 C   0  0  0  0  0  3  0  0  0  0  0  0
    5.5460   -4.0420   11.6310 C   0  0  0  0  0  3  0  0  0  0  0  0
    5.9570   -4.9820   10.6850 C   0  0  0  0  0  3  0  0  0  0  0  0
    5.1500   -5.2640    9.5820 C   0  0  0  0  0  3  0  0  0  0  0  0
    3.9270   -4.6090    9.4230 C   0  0  0  0  0  3  0  0  0  0  0  0
    3.6580   -0.0620   12.3080 O   0  0  0  0  0  1  0  0  0  0  0  0
    3.7980    0.3490   11.1170 C   0  0  0  0  0  0  0  0  0  0  0  0
    4.2870    1.4280   10.6780 O   0  0  0  0  0  0  0  0  0  0  0  0
  1 18  2  0  0  0  0
  1 29  1  0  0  0  0
  2  1  1  0  0  0  0
  3  2  1  0  0  0  0
  4  3  1  0  0  0  0
  5  4  2  0  0  0  0
  6  7  2  0  0  0  0
  6  5  1  0  0  0  0
  7  8  1  0  0  0  0
  8  3  2  0  0  0  0
  9 10  1  0  0  0  0
  9  6  1  0  0  0  0
 10 11  1  0  0  0  0
 11 13  2  0  0  0  0
 11 12  1  0  0  0  0
 14 13  1  0  0  0  0
 15 14  2  0  0  0  0
 16 15  1  0  0  0  0
 16 10  2  0  0  0  0
 17 16  1  0  0  0  0
 18 21  1  0  0  0  0
 19 18  1  0  0  0  0
 19 22  1  0  0  0  0
 20 19  2  0  0  0  0
 22 23  1  0  0  0  0
 23 24  2  0  0  0  0
 25 24  1  0  0  0  0
 26 25  2  0  0  0  0
 27 26  1  0  0  0  0
 27 22  2  0  0  0  0
 29 28  1  0  0  0  0
 30 29  2  0  0  0  0
M  END
>  <minimizedAffinity>
-6.01112795

$$$$

 OpenBabel09122223593D

 30 32  0  0  0  0  0  0  0  0999 V2000
    2.7480   -5.9840    6.5790 C   0  0  0  0  0  0  0  0  0  0  0  0
    2.1590   -5.7400    7.7680 C   0  0  0  0  0  2  0  0  0  0  0  0
    2.7130   -4.9720    8.8880 C   0  0  0  0  0  0  0  0  0  0  0  0
    2.0430   -3.8310    9.3380 C   0  0  0  0  0  3  0  0  0  0  0  0
    2.5800   -3.0610   10.3740 C   0  0  0  0  0  3  0  0  0  0  0  0
    3.7880   -3.4280   10.9690 C   0  0  0  0  0  0  0  0  0  0  0  0
    4.4740   -4.5560   10.5100 C   0  0  0  0  0  3  0  0  0  0  0  0
    3.9340   -5.3250    9.4750 C   0  0  0  0  0  3  0  0  0  0  0  0
    4.2560   -2.5760   11.9490 O   0  0  0  0  0  0  0  0  0  0  0  0
    4.5070   -1.2760   11.5850 C   0  0  0  0  0  0  0  0  0  0  0  0
    5.5270   -0.9780   10.6810 C   0  0  0  0  0  0  0  0  0  0  0  0
    6.2640   -1.9580   10.1390 F   0  0  0  0  0  0  0  0  0  0  0  0
    5.8130    0.3400   10.3330 C   0  0  0  0  0  3  0  0  0  0  0  0
    5.0850    1.3810   10.9080 C   0  0  0  0  0  3  0  0  0  0  0  0
    4.0810    1.0960   11.8370 C   0  0  0  0  0  3  0  0  0  0  0  0
    3.7980   -0.2300   12.1820 C   0  0  0  0  0  0  0  0  0  0  0  0
    2.5590   -0.5290   13.3450 Cl  0  0  0  0  0  0  0  0  0  0  0  0
    4.0500   -5.5830    6.3160 N   0  0  0  0  0  4  0  0  0  0  0  0
    4.5670   -4.3570    5.9620 C   0  0  0  0  0  0  0  0  0  0  0  0
    5.7180   -4.2850    5.5180 O   0  0  0  0  0  0  0  0  0  0  0  0
    4.7440   -6.3180    6.2780 H   0  0  0  0  0  0  0  0  0  0  0  0
    3.8360   -3.0930    6.1990 C   0  0  0  0  0  0  0  0  0  0  0  0
    4.3270   -2.2060    7.1640 C   0  0  0  0  0  3  0  0  0  0  0  0
    3.6200   -1.0400    7.4660 C   0  0  0  0  0  3  0  0  0  0  0  0
    2.4150   -0.7690    6.8170 C   0  0  0  0  0  3  0  0  0  0  0  0
    1.9120   -1.6640    5.8730 C   0  0  0  0  0  3  0  0  0  0  0  0
    2.6140   -2.8340    5.5730 C   0  0  0  0  0  3  0  0  0  0  0  0
    2.5010   -7.4680    4.7180 O   0  0  0  0  0  0  0  0  0  0  0  0
    1.8630   -6.8520    5.6230 C   0  0  0  0  0  0  0  0  0  0  0  0
    0.6210   -6.7930    5.8500 O   0  0  0  0  0  1  0  0  0  0  0  0
  1  2  1  0  0  0  0
  2  3  1  0  0  0  0
  3  4  2  0  0  0  0
  3  8  1  0  0  0  0
  4  5  1  0  0  0  0
  5  6  2  0  0  0  0
  6  9  1  0  0  0  0
  7  6  1  0  0  0  0
  8  7  2  0  0  0  0
 10  9  1  0  0  0  0
 10 16  1  0  0  0  0
 11 10  2  0  0  0  0
 12 11  1  0  0  0  0
 13 11  1  0  0  0  0
 13 14  2  0  0  0  0
 14 15  1  0  0  0  0
 15 16  2  0  0  0  0
 16 17  1  0  0  0  0
 18  1  2  0  0  0  0
 19 22  1  0  0  0  0
 19 18  1  0  0  0  0
 20 19  2  0  0  0  0
 21 18  1  0  0  0  0
 22 23  1  0  0  0  0
 23 24  2  0  0  0  0
 25 24  1  0  0  0  0
 26 25  2  0  0  0  0
 27 26  1  0  0  0  0
 27 22  2  0  0  0  0
 28 29  2  0  0  0  0
 29 30  1  0  0  0  0
 29  1  1  0  0  0  0
M  END
>  <minimizedAffinity>
-5.97941732

$$$$
