
 OpenBabel09132204463D

 30 32  0  0  0  0  0  0  0  0999 V2000
    5.0670   -6.0320    1.1230 C   0  0  0  0  0  0  0  0  0  0  0  0
    4.2900   -5.2630    1.9120 C   0  0  0  0  0  2  0  0  0  0  0  0
    4.4830   -4.9810    3.3390 C   0  0  0  0  0  0  0  0  0  0  0  0
    3.7000   -5.6480    4.2840 C   0  0  0  0  0  3  0  0  0  0  0  0
    3.8380   -5.3600    5.6450 C   0  0  0  0  0  3  0  0  0  0  0  0
    4.7620   -4.4040    6.0700 C   0  0  0  0  0  0  0  0  0  0  0  0
    5.5340   -3.7170    5.1290 C   0  0  0  0  0  3  0  0  0  0  0  0
    5.3950   -4.0090    3.7690 C   0  0  0  0  0  3  0  0  0  0  0  0
    4.7880   -4.1570    7.4280 O   0  0  0  0  0  0  0  0  0  0  0  0
    4.0010   -3.1330    7.8960 C   0  0  0  0  0  0  0  0  0  0  0  0
    4.4430   -1.8110    7.8240 C   0  0  0  0  0  0  0  0  0  0  0  0
    5.6320   -1.5200    7.2790 F   0  0  0  0  0  0  0  0  0  0  0  0
    3.6680   -0.7700    8.3290 C   0  0  0  0  0  3  0  0  0  0  0  0
    2.4430   -1.0480    8.9330 C   0  0  0  0  0  3  0  0  0  0  0  0
    2.0040   -2.3700    9.0370 C   0  0  0  0  0  3  0  0  0  0  0  0
    2.7860   -3.4130    8.5280 C   0  0  0  0  0  0  0  0  0  0  0  0
    2.2080   -5.0300    8.6940 Cl  0  0  0  0  0  0  0  0  0  0  0  0
    6.1420   -6.7460    1.6340 N   0  0  0  0  0  4  0  0  0  0  0  0
    7.5000   -6.5420    1.5270 C   0  0  0  0  0  0  0  0  0  0  0  0
    8.2790   -7.4480    1.8380 O   0  0  0  0  0  0  0  0  0  0  0  0
    5.9210   -7.6240    2.0850 H   0  0  0  0  0  0  0  0  0  0  0  0
    8.0750   -5.2290    1.1610 C   0  0  0  0  0  0  0  0  0  0  0  0
    8.6120   -5.0670   -0.1210 C   0  0  0  0  0  3  0  0  0  0  0  0
    9.2300   -3.8650   -0.4730 C   0  0  0  0  0  3  0  0  0  0  0  0
    9.3260   -2.8320    0.4600 C   0  0  0  0  0  3  0  0  0  0  0  0
    8.8130   -3.0010    1.7470 C   0  0  0  0  0  3  0  0  0  0  0  0
    8.2000   -4.2040    2.1030 C   0  0  0  0  0  3  0  0  0  0  0  0
    4.9740   -7.1130   -1.0100 O   0  0  0  0  0  0  0  0  0  0  0  0
    4.5500   -6.1170   -0.3520 C   0  0  0  0  0  0  0  0  0  0  0  0
    3.8090   -5.1580   -0.7110 O   0  0  0  0  0  1  0  0  0  0  0  0
  1 18  2  0  0  0  0
  1  2  1  0  0  0  0
  2  3  1  0  0  0  0
  3  8  2  0  0  0  0
  3  4  1  0  0  0  0
  4  5  2  0  0  0  0
  5  6  1  0  0  0  0
  6  9  1  0  0  0  0
  7  6  2  0  0  0  0
  8  7  1  0  0  0  0
  9 10  1  0  0  0  0
 10 16  1  0  0  0  0
 11 10  2  0  0  0  0
 11 13  1  0  0  0  0
 12 11  1  0  0  0  0
 13 14  2  0  0  0  0
 14 15  1  0  0  0  0
 16 17  1  0  0  0  0
 16 15  2  0  0  0  0
 18 21  1  0  0  0  0
 19 18  1  0  0  0  0
 19 20  2  0  0  0  0
 22 19  1  0  0  0  0
 22 27  1  0  0  0  0
 23 22  2  0  0  0  0
 24 23  1  0  0  0  0
 24 25  2  0  0  0  0
 25 26  1  0  0  0  0
 26 27  2  0  0  0  0
 28 29  2  0  0  0  0
 29  1  1  0  0  0  0
 30 29  1  0  0  0  0
M  END
>  <minimizedAffinity>
-6.23787737

$$$$
