
 OpenBabel09132204463D

 30 32  0  0  0  0  0  0  0  0999 V2000
    3.3440   -2.9170    5.8980 C   0  0  0  0  0  0  0  0  0  0  0  0
    3.2660   -1.6860    6.4430 C   0  0  0  0  0  2  0  0  0  0  0  0
    3.4680   -1.3270    7.8510 C   0  0  0  0  0  0  0  0  0  0  0  0
    2.4140   -1.4780    8.7570 C   0  0  0  0  0  3  0  0  0  0  0  0
    2.5740   -1.0990   10.0930 C   0  0  0  0  0  3  0  0  0  0  0  0
    3.7880   -0.5680   10.5330 C   0  0  0  0  0  0  0  0  0  0  0  0
    4.8380   -0.3950    9.6280 C   0  0  0  0  0  3  0  0  0  0  0  0
    4.6770   -0.7760    8.2930 C   0  0  0  0  0  3  0  0  0  0  0  0
    3.8270   -0.1810   11.8570 O   0  0  0  0  0  0  0  0  0  0  0  0
    4.8620    0.6370   12.2420 C   0  0  0  0  0  0  0  0  0  0  0  0
    4.8700    1.9850   11.8830 C   0  0  0  0  0  0  0  0  0  0  0  0
    3.8600    2.5060   11.1720 F   0  0  0  0  0  0  0  0  0  0  0  0
    5.9320    2.8130   12.2380 C   0  0  0  0  0  3  0  0  0  0  0  0
    7.0130    2.2900   12.9460 C   0  0  0  0  0  3  0  0  0  0  0  0
    7.0280    0.9340   13.2860 C   0  0  0  0  0  3  0  0  0  0  0  0
    5.9590    0.1070   12.9270 C   0  0  0  0  0  0  0  0  0  0  0  0
    6.0320   -1.5630   13.3570 Cl  0  0  0  0  0  0  0  0  0  0  0  0
    3.5510   -4.0460    6.6790 N   0  0  0  0  0  4  0  0  0  0  0  0
    4.7110   -4.6580    7.1000 C   0  0  0  0  0  0  0  0  0  0  0  0
    4.6620   -5.8010    7.5650 O   0  0  0  0  0  0  0  0  0  0  0  0
    2.7270   -4.5840    6.9120 H   0  0  0  0  0  0  0  0  0  0  0  0
    6.0110   -3.9540    7.1250 C   0  0  0  0  0  0  0  0  0  0  0  0
    6.6530   -3.7750    8.3560 C   0  0  0  0  0  3  0  0  0  0  0  0
    7.8440   -3.0500    8.4250 C   0  0  0  0  0  3  0  0  0  0  0  0
    8.3850   -2.4880    7.2670 C   0  0  0  0  0  3  0  0  0  0  0  0
    7.7330   -2.6430    6.0430 C   0  0  0  0  0  3  0  0  0  0  0  0
    6.5390   -3.3640    5.9730 C   0  0  0  0  0  3  0  0  0  0  0  0
    2.0300   -2.2770    4.0040 O   0  0  0  0  0  1  0  0  0  0  0  0
    3.0580   -2.9270    4.3590 C   0  0  0  0  0  0  0  0  0  0  0  0
    3.8650   -3.6160    3.6730 O   0  0  0  0  0  0  0  0  0  0  0  0
  1  2  1  0  0  0  0
  1 18  2  0  0  0  0
  2  3  1  0  0  0  0
  3  8  2  0  0  0  0
  3  4  1  0  0  0  0
  4  5  2  0  0  0  0
  5  6  1  0  0  0  0
  6  9  1  0  0  0  0
  7  6  2  0  0  0  0
  8  7  1  0  0  0  0
  9 10  1  0  0  0  0
 10 16  1  0  0  0  0
 11 13  1  0  0  0  0
 11 10  2  0  0  0  0
 12 11  1  0  0  0  0
 13 14  2  0  0  0  0
 14 15  1  0  0  0  0
 16 15  2  0  0  0  0
 16 17  1  0  0  0  0
 18 21  1  0  0  0  0
 18 19  1  0  0  0  0
 19 22  1  0  0  0  0
 19 20  2  0  0  0  0
 22 23  1  0  0  0  0
 23 24  2  0  0  0  0
 25 24  1  0  0  0  0
 26 25  2  0  0  0  0
 27 26  1  0  0  0  0
 27 22  2  0  0  0  0
 28 29  1  0  0  0  0
 29  1  1  0  0  0  0
 30 29  2  0  0  0  0
M  END
>  <minimizedAffinity>
-6.02645636

$$$$
