
 OpenBabel09122222393D

 39 44  0  0  0  0  0  0  0  0999 V2000
    6.7110   -0.7040  -14.9600 C   0  0  0  0  0  0  0  0  0  0  0  0
    7.6880   -0.8900  -13.9760 C   0  0  0  0  0  3  0  0  0  0  0  0
    8.6270    0.1120  -13.7150 C   0  0  0  0  0  3  0  0  0  0  0  0
    8.6280    1.2960  -14.4570 C   0  0  0  0  0  0  0  0  0  0  0  0
    7.6640    1.4860  -15.4450 C   0  0  0  0  0  3  0  0  0  0  0  0
    6.7230    0.4860  -15.6910 C   0  0  0  0  0  0  0  0  0  0  0  0
    5.7980    0.7110  -16.6380 F   0  0  0  0  0  0  0  0  0  0  0  0
    2.1880   -4.4140  -16.2490 C   0  0  0  0  0  0  0  0  0  0  0  0
    3.1050   -5.4190  -15.9030 C   0  0  0  0  0  3  0  0  0  0  0  0
    4.4130   -5.1280  -15.4940 C   0  0  0  0  0  3  0  0  0  0  0  0
    4.7900   -3.7800  -15.4350 C   0  0  0  0  0  0  0  0  0  0  0  0
    3.9070   -2.7570  -15.7690 C   0  0  0  0  0  0  0  0  0  0  0  0
    2.6000   -3.0680  -16.1770 C   0  0  0  0  0  3  0  0  0  0  0  0
    4.5100   -1.5310  -15.6430 N   0  0  0  0  0  0  0  0  0  0  0  0
    5.7340   -1.7620  -15.2090 C   0  0  0  0  0  0  0  0  0  0  0  0
    5.9630   -3.1280  -15.1070 N   0  0  0  0  0  0  0  0  0  0  0  0
    7.2450   -3.7580  -14.8020 C   0  0  0  0  0  3  0  0  0  0  0  0
    7.1970   -4.6480  -13.5510 C   0  0  0  0  0  2  0  0  0  0  0  0
    8.5710   -5.2380  -13.2360 C   0  0  0  0  0  2  0  0  0  0  0  0
    9.1570   -5.9750  -14.4370 C   0  0  0  0  0  2  0  0  0  0  0  0
    9.2180   -5.0820  -15.6740 C   0  0  0  0  0  2  0  0  0  0  0  0
    7.8500   -4.4930  -16.0120 C   0  0  0  0  0  2  0  0  0  0  0  0
    0.4340   -5.9890  -16.5780 O   0  0  0  0  0  1  0  0  0  0  0  0
    0.7830   -4.7720  -16.6930 C   0  0  0  0  0  0  0  0  0  0  0  0
    0.0580   -3.8330  -17.1510 O   0  0  0  0  0  0  0  0  0  0  0  0
    9.5740    2.2130  -14.0930 O   0  0  0  0  0  0  0  0  0  0  0  0
   10.3360    1.9220  -12.9110 C   0  0  0  0  0  2  0  0  0  0  0  0
   11.8250    2.1380  -13.1100 C   0  0  0  0  0  0  0  0  0  0  0  0
   12.3180    3.4580  -13.1410 C   0  0  0  0  0  3  0  0  0  0  0  0
   13.6730    3.7180  -13.3330 C   0  0  0  0  0  3  0  0  0  0  0  0
   14.5610    2.6640  -13.5090 C   0  0  0  0  0  3  0  0  0  0  0  0
   14.0900    1.3510  -13.4980 C   0  0  0  0  0  3  0  0  0  0  0  0
   12.7230    1.0650  -13.3060 C   0  0  0  0  0  0  0  0  0  0  0  0
   12.2930   -0.3380  -13.3170 C   0  0  0  0  0  0  0  0  0  0  0  0
   12.3270   -1.1070  -12.1430 C   0  0  0  0  0  3  0  0  0  0  0  0
   11.9180   -2.4430  -12.1550 C   0  0  0  0  0  3  0  0  0  0  0  0
   11.4670   -3.0240  -13.3400 C   0  0  0  0  0  3  0  0  0  0  0  0
   11.4230   -2.2700  -14.5120 C   0  0  0  0  0  3  0  0  0  0  0  0
   11.8310   -0.9350  -14.4990 C   0  0  0  0  0  3  0  0  0  0  0  0
  1  2  1  0  0  0  0
  2  3  2  0  0  0  0
  4 26  1  0  0  0  0
  4  3  1  0  0  0  0
  5  4  2  0  0  0  0
  6  5  1  0  0  0  0
  6  1  2  0  0  0  0
  7  6  1  0  0  0  0
  8 13  2  0  0  0  0
  8  9  1  0  0  0  0
  9 10  2  0  0  0  0
 10 11  1  0  0  0  0
 11 16  1  0  0  0  0
 12 14  1  0  0  0  0
 12 11  2  0  0  0  0
 13 12  1  0  0  0  0
 14 15  2  0  0  0  0
 15 16  1  0  0  0  0
 15  1  1  0  0  0  0
 16 17  1  0  0  0  0
 17 18  1  0  0  0  0
 18 19  1  0  0  0  0
 20 19  1  0  0  0  0
 21 20  1  0  0  0  0
 22 21  1  0  0  0  0
 22 17  1  0  0  0  0
 24 23  1  0  0  0  0
 24  8  1  0  0  0  0
 25 24  2  0  0  0  0
 26 27  1  0  0  0  0
 28 27  1  0  0  0  0
 29 28  1  0  0  0  0
 30 29  2  0  0  0  0
 31 32  2  0  0  0  0
 31 30  1  0  0  0  0
 32 33  1  0  0  0  0
 33 28  2  0  0  0  0
 34 33  1  0  0  0  0
 34 35  1  0  0  0  0
 36 35  2  0  0  0  0
 37 36  1  0  0  0  0
 38 39  1  0  0  0  0
 38 37  2  0  0  0  0
 39 34  2  0  0  0  0
M  END
>  <minimizedAffinity>
-6.56436253

$$$$
