
 OpenBabel09122222393D

 39 44  0  0  0  0  0  0  0  0999 V2000
    9.7970    0.7700    1.7560 C   0  0  0  0  0  0  0  0  0  0  0  0
    9.8880    1.6740    0.6910 C   0  0  0  0  0  3  0  0  0  0  0  0
   10.2470    3.0040    0.9220 C   0  0  0  0  0  3  0  0  0  0  0  0
   10.4830    3.4610    2.2210 C   0  0  0  0  0  0  0  0  0  0  0  0
   10.3880    2.5710    3.2880 C   0  0  0  0  0  3  0  0  0  0  0  0
   10.0410    1.2410    3.0480 C   0  0  0  0  0  0  0  0  0  0  0  0
    9.9760    0.4070    4.0980 F   0  0  0  0  0  0  0  0  0  0  0  0
    7.7050   -4.8230    1.2780 C   0  0  0  0  0  0  0  0  0  0  0  0
    8.5950   -4.9070    0.1960 C   0  0  0  0  0  3  0  0  0  0  0  0
    9.4060   -3.8330   -0.1920 C   0  0  0  0  0  3  0  0  0  0  0  0
    9.3060   -2.6460    0.5460 C   0  0  0  0  0  0  0  0  0  0  0  0
    8.4370   -2.5250    1.6270 C   0  0  0  0  0  0  0  0  0  0  0  0
    7.6310   -3.6140    1.9990 C   0  0  0  0  0  3  0  0  0  0  0  0
    8.5130   -1.2710    2.1760 N   0  0  0  0  0  0  0  0  0  0  0  0
    9.4290   -0.6180    1.4880 C   0  0  0  0  0  0  0  0  0  0  0  0
    9.9120   -1.4080    0.4530 N   0  0  0  0  0  0  0  0  0  0  0  0
   10.8240   -0.9700   -0.6010 C   0  0  0  0  0  3  0  0  0  0  0  0
   11.9430   -1.9830   -0.8890 C   0  0  0  0  0  2  0  0  0  0  0  0
   12.9050   -1.4580   -1.9540 C   0  0  0  0  0  2  0  0  0  0  0  0
   12.1690   -1.0460   -3.2260 C   0  0  0  0  0  2  0  0  0  0  0  0
   11.0690   -0.0280   -2.9380 C   0  0  0  0  0  2  0  0  0  0  0  0
   10.0890   -0.5400   -1.8830 C   0  0  0  0  0  2  0  0  0  0  0  0
    6.0360   -5.8440    2.6320 O   0  0  0  0  0  1  0  0  0  0  0  0
    6.8400   -6.0070    1.6610 C   0  0  0  0  0  0  0  0  0  0  0  0
    6.9820   -7.0760    0.9860 O   0  0  0  0  0  0  0  0  0  0  0  0
   10.8550    4.7730    2.3200 O   0  0  0  0  0  0  0  0  0  0  0  0
   10.9800    5.5050    1.0910 C   0  0  0  0  0  2  0  0  0  0  0  0
   10.6230    6.9720    1.2480 C   0  0  0  0  0  0  0  0  0  0  0  0
    9.5170    7.3160    2.0500 C   0  0  0  0  0  3  0  0  0  0  0  0
    9.1350    8.6450    2.2200 C   0  0  0  0  0  3  0  0  0  0  0  0
    9.8450    9.6560    1.5840 C   0  0  0  0  0  3  0  0  0  0  0  0
   10.9340    9.3330    0.7740 C   0  0  0  0  0  3  0  0  0  0  0  0
   11.3370    7.9960    0.5860 C   0  0  0  0  0  0  0  0  0  0  0  0
   12.4840    7.7260   -0.2890 C   0  0  0  0  0  0  0  0  0  0  0  0
   13.7960    7.9350    0.1640 C   0  0  0  0  0  3  0  0  0  0  0  0
   14.8860    7.6790   -0.6710 C   0  0  0  0  0  3  0  0  0  0  0  0
   14.6780    7.2070   -1.9660 C   0  0  0  0  0  3  0  0  0  0  0  0
   13.3800    6.9910   -2.4280 C   0  0  0  0  0  3  0  0  0  0  0  0
   12.2900    7.2470   -1.5930 C   0  0  0  0  0  3  0  0  0  0  0  0
  1  6  1  0  0  0  0
  2  3  1  0  0  0  0
  2  1  2  0  0  0  0
  3  4  2  0  0  0  0
  4 26  1  0  0  0  0
  4  5  1  0  0  0  0
  6  5  2  0  0  0  0
  6  7  1  0  0  0  0
  8 24  1  0  0  0  0
  8 13  1  0  0  0  0
  9  8  2  0  0  0  0
 10  9  1  0  0  0  0
 10 11  2  0  0  0  0
 11 12  1  0  0  0  0
 12 13  2  0  0  0  0
 12 14  1  0  0  0  0
 15  1  1  0  0  0  0
 15 14  2  0  0  0  0
 16 11  1  0  0  0  0
 16 15  1  0  0  0  0
 17 16  1  0  0  0  0
 18 17  1  0  0  0  0
 19 18  1  0  0  0  0
 20 21  1  0  0  0  0
 20 19  1  0  0  0  0
 21 22  1  0  0  0  0
 22 17  1  0  0  0  0
 24 23  1  0  0  0  0
 25 24  2  0  0  0  0
 27 28  1  0  0  0  0
 27 26  1  0  0  0  0
 28 29  1  0  0  0  0
 29 30  2  0  0  0  0
 31 30  1  0  0  0  0
 32 31  2  0  0  0  0
 33 32  1  0  0  0  0
 33 28  2  0  0  0  0
 34 35  1  0  0  0  0
 34 33  1  0  0  0  0
 36 35  2  0  0  0  0
 37 36  1  0  0  0  0
 38 37  2  0  0  0  0
 38 39  1  0  0  0  0
 39 34  2  0  0  0  0
M  END
>  <minimizedAffinity>
-6.47927952

$$$$
