
 OpenBabel09122222393D

 39 44  0  0  0  0  0  0  0  0999 V2000
    8.4210   -4.2050  -14.0940 C   0  0  0  0  0  0  0  0  0  0  0  0
    9.7230   -4.2310  -14.6050 C   0  0  0  0  0  3  0  0  0  0  0  0
   10.6400   -5.1840  -14.1530 C   0  0  0  0  0  3  0  0  0  0  0  0
   10.2840   -6.0980  -13.1590 C   0  0  0  0  0  0  0  0  0  0  0  0
    8.9920   -6.0740  -12.6380 C   0  0  0  0  0  3  0  0  0  0  0  0
    8.0780   -5.1270  -13.1030 C   0  0  0  0  0  0  0  0  0  0  0  0
    6.8370   -5.1450  -12.5920 F   0  0  0  0  0  0  0  0  0  0  0  0
    3.9630   -0.7280  -16.0750 C   0  0  0  0  0  0  0  0  0  0  0  0
    4.9310    0.2870  -16.0340 C   0  0  0  0  0  3  0  0  0  0  0  0
    6.2480    0.0480  -15.6210 C   0  0  0  0  0  3  0  0  0  0  0  0
    6.5830   -1.2600  -15.2440 C   0  0  0  0  0  0  0  0  0  0  0  0
    5.6500   -2.2920  -15.2730 C   0  0  0  0  0  0  0  0  0  0  0  0
    4.3330   -2.0320  -15.6890 C   0  0  0  0  0  3  0  0  0  0  0  0
    6.2120   -3.4700  -14.8490 N   0  0  0  0  0  0  0  0  0  0  0  0
    7.4770   -3.2050  -14.5890 C   0  0  0  0  0  0  0  0  0  0  0  0
    7.7390   -1.8540  -14.7760 N   0  0  0  0  0  0  0  0  0  0  0  0
    8.9870   -1.1720  -14.4430 C   0  0  0  0  0  3  0  0  0  0  0  0
    9.7510   -0.6760  -15.6810 C   0  0  0  0  0  2  0  0  0  0  0  0
   11.0760   -0.0230  -15.2900 C   0  0  0  0  0  2  0  0  0  0  0  0
   10.8770    1.0860  -14.2610 C   0  0  0  0  0  2  0  0  0  0  0  0
   10.1320    0.5850  -13.0260 C   0  0  0  0  0  2  0  0  0  0  0  0
    8.7970   -0.0610  -13.3970 C   0  0  0  0  0  2  0  0  0  0  0  0
    2.3590    0.6660  -17.1460 O   0  0  0  0  0  0  0  0  0  0  0  0
    2.5460   -0.4260  -16.5210 C   0  0  0  0  0  0  0  0  0  0  0  0
    1.6490   -1.2810  -16.2380 O   0  0  0  0  0  1  0  0  0  0  0  0
   11.2540   -7.0000  -12.8190 O   0  0  0  0  0  0  0  0  0  0  0  0
   12.5870   -6.7170  -13.2720 C   0  0  0  0  0  2  0  0  0  0  0  0
   13.6000   -6.7300  -12.1420 C   0  0  0  0  0  0  0  0  0  0  0  0
   14.0470   -7.9720  -11.6490 C   0  0  0  0  0  3  0  0  0  0  0  0
   14.9670   -8.0450  -10.6050 C   0  0  0  0  0  3  0  0  0  0  0  0
   15.4500   -6.8770  -10.0260 C   0  0  0  0  0  3  0  0  0  0  0  0
   15.0070   -5.6390  -10.4900 C   0  0  0  0  0  3  0  0  0  0  0  0
   14.0770   -5.5410  -11.5430 C   0  0  0  0  0  0  0  0  0  0  0  0
   13.6440   -4.2070  -11.9750 C   0  0  0  0  0  0  0  0  0  0  0  0
   14.3410   -3.5170  -12.9790 C   0  0  0  0  0  3  0  0  0  0  0  0
   13.9290   -2.2470  -13.3880 C   0  0  0  0  0  3  0  0  0  0  0  0
   12.8130   -1.6530  -12.8000 C   0  0  0  0  0  3  0  0  0  0  0  0
   12.1080   -2.3290  -11.8040 C   0  0  0  0  0  3  0  0  0  0  0  0
   12.5210   -3.5990  -11.3960 C   0  0  0  0  0  3  0  0  0  0  0  0
  1  6  1  0  0  0  0
  2  3  1  0  0  0  0
  2  1  2  0  0  0  0
  3  4  2  0  0  0  0
  4 26  1  0  0  0  0
  4  5  1  0  0  0  0
  6  5  2  0  0  0  0
  6  7  1  0  0  0  0
  8  9  2  0  0  0  0
  8 13  1  0  0  0  0
  9 10  1  0  0  0  0
 10 11  2  0  0  0  0
 11 16  1  0  0  0  0
 12 11  1  0  0  0  0
 12 14  1  0  0  0  0
 13 12  2  0  0  0  0
 14 15  2  0  0  0  0
 15  1  1  0  0  0  0
 16 15  1  0  0  0  0
 16 17  1  0  0  0  0
 17 22  1  0  0  0  0
 18 19  1  0  0  0  0
 18 17  1  0  0  0  0
 19 20  1  0  0  0  0
 20 21  1  0  0  0  0
 22 21  1  0  0  0  0
 23 24  2  0  0  0  0
 24 25  1  0  0  0  0
 24  8  1  0  0  0  0
 27 26  1  0  0  0  0
 27 28  1  0  0  0  0
 28 29  2  0  0  0  0
 28 33  1  0  0  0  0
 29 30  1  0  0  0  0
 30 31  2  0  0  0  0
 32 31  1  0  0  0  0
 33 32  2  0  0  0  0
 34 33  1  0  0  0  0
 34 39  1  0  0  0  0
 35 34  2  0  0  0  0
 36 35  1  0  0  0  0
 36 37  2  0  0  0  0
 37 38  1  0  0  0  0
 38 39  2  0  0  0  0
M  END
>  <minimizedAffinity>
-6.94687796

$$$$
