
 OpenBabel09122222393D

 39 44  0  0  0  0  0  0  0  0999 V2000
    9.7510    1.7900    1.8550 C   0  0  0  0  0  0  0  0  0  0  0  0
    9.5050    0.7500    0.9520 C   0  0  0  0  0  3  0  0  0  0  0  0
    9.2630   -0.5460    1.4170 C   0  0  0  0  0  3  0  0  0  0  0  0
    9.3000   -0.8290    2.7840 C   0  0  0  0  0  0  0  0  0  0  0  0
    9.5520    0.1990    3.6900 C   0  0  0  0  0  3  0  0  0  0  0  0
    9.7810    1.4920    3.2190 C   0  0  0  0  0  0  0  0  0  0  0  0
   10.0030    2.4610    4.1210 F   0  0  0  0  0  0  0  0  0  0  0  0
    9.9970    7.2260   -0.6510 C   0  0  0  0  0  0  0  0  0  0  0  0
   11.1510    7.3760    0.1350 C   0  0  0  0  0  3  0  0  0  0  0  0
   11.6150    6.3620    0.9840 C   0  0  0  0  0  3  0  0  0  0  0  0
   10.8840    5.1680    1.0270 C   0  0  0  0  0  0  0  0  0  0  0  0
    9.7360    4.9820    0.2610 C   0  0  0  0  0  0  0  0  0  0  0  0
    9.2870    6.0110   -0.5830 C   0  0  0  0  0  3  0  0  0  0  0  0
    9.1950    3.7420    0.4860 N   0  0  0  0  0  0  0  0  0  0  0  0
    9.9930    3.1380    1.3450 C   0  0  0  0  0  0  0  0  0  0  0  0
   11.0170    3.9900    1.7370 N   0  0  0  0  0  0  0  0  0  0  0  0
   11.9990    3.7190    2.7840 C   0  0  0  0  0  3  0  0  0  0  0  0
   13.3890    3.3690    2.2300 C   0  0  0  0  0  2  0  0  0  0  0  0
   14.3670    3.0360    3.3560 C   0  0  0  0  0  2  0  0  0  0  0  0
   14.4320    4.1510    4.3960 C   0  0  0  0  0  2  0  0  0  0  0  0
   13.0520    4.4850    4.9550 C   0  0  0  0  0  2  0  0  0  0  0  0
   12.0630    4.8330    3.8430 C   0  0  0  0  0  2  0  0  0  0  0  0
    9.2000    9.4430   -0.9880 O   0  0  0  0  0  1  0  0  0  0  0  0
    9.5260    8.3500   -1.5520 C   0  0  0  0  0  0  0  0  0  0  0  0
    9.4870    8.1200   -2.8020 O   0  0  0  0  0  0  0  0  0  0  0  0
    9.0180   -2.1240    3.1210 O   0  0  0  0  0  0  0  0  0  0  0  0
    9.7610   -3.1460    2.4380 C   0  0  0  0  0  2  0  0  0  0  0  0
    8.9250   -3.8830    1.4080 C   0  0  0  0  0  0  0  0  0  0  0  0
    7.7720   -4.5690    1.8380 C   0  0  0  0  0  3  0  0  0  0  0  0
    6.9730   -5.2720    0.9380 C   0  0  0  0  0  3  0  0  0  0  0  0
    7.3170   -5.3120   -0.4070 C   0  0  0  0  0  3  0  0  0  0  0  0
    8.4630   -4.6520   -0.8490 C   0  0  0  0  0  3  0  0  0  0  0  0
    9.2860   -3.9360    0.0420 C   0  0  0  0  0  0  0  0  0  0  0  0
   10.4840   -3.2740   -0.4880 C   0  0  0  0  0  0  0  0  0  0  0  0
   10.3720   -2.2000   -1.3840 C   0  0  0  0  0  3  0  0  0  0  0  0
   11.5120   -1.5710   -1.8890 C   0  0  0  0  0  3  0  0  0  0  0  0
   12.7780   -2.0070   -1.5000 C   0  0  0  0  0  3  0  0  0  0  0  0
   12.9050   -3.0690   -0.6060 C   0  0  0  0  0  3  0  0  0  0  0  0
   11.7640   -3.6970   -0.1020 C   0  0  0  0  0  3  0  0  0  0  0  0
  1  6  1  0  0  0  0
  2  3  1  0  0  0  0
  2  1  2  0  0  0  0
  3  4  2  0  0  0  0
  4 26  1  0  0  0  0
  4  5  1  0  0  0  0
  6  5  2  0  0  0  0
  6  7  1  0  0  0  0
  8 13  2  0  0  0  0
  8  9  1  0  0  0  0
  9 10  2  0  0  0  0
 10 11  1  0  0  0  0
 11 16  1  0  0  0  0
 12 14  1  0  0  0  0
 12 11  2  0  0  0  0
 13 12  1  0  0  0  0
 14 15  2  0  0  0  0
 15 16  1  0  0  0  0
 15  1  1  0  0  0  0
 16 17  1  0  0  0  0
 17 22  1  0  0  0  0
 18 17  1  0  0  0  0
 18 19  1  0  0  0  0
 19 20  1  0  0  0  0
 20 21  1  0  0  0  0
 22 21  1  0  0  0  0
 24 23  1  0  0  0  0
 24  8  1  0  0  0  0
 25 24  2  0  0  0  0
 27 26  1  0  0  0  0
 28 29  1  0  0  0  0
 28 27  1  0  0  0  0
 30 29  2  0  0  0  0
 31 30  1  0  0  0  0
 32 31  2  0  0  0  0
 32 33  1  0  0  0  0
 33 28  2  0  0  0  0
 34 39  1  0  0  0  0
 34 33  1  0  0  0  0
 35 34  2  0  0  0  0
 36 37  2  0  0  0  0
 36 35  1  0  0  0  0
 37 38  1  0  0  0  0
 38 39  2  0  0  0  0
M  END
>  <minimizedAffinity>
-6.98186541

$$$$
