
 OpenBabel09122222393D

 39 44  0  0  0  0  0  0  0  0999 V2000
   10.5470   -0.5200  -14.0760 C   0  0  0  0  0  0  0  0  0  0  0  0
   11.6250   -0.9770  -14.8420 C   0  0  0  0  0  3  0  0  0  0  0  0
   12.6090   -1.7840  -14.2650 C   0  0  0  0  0  3  0  0  0  0  0  0
   12.5530   -2.1150  -12.9090 C   0  0  0  0  0  0  0  0  0  0  0  0
   11.4870   -1.6580  -12.1370 C   0  0  0  0  0  3  0  0  0  0  0  0
   10.5020   -0.8630  -12.7230 C   0  0  0  0  0  0  0  0  0  0  0  0
    9.4800   -0.4550  -11.9530 F   0  0  0  0  0  0  0  0  0  0  0  0
    6.8620    3.5660  -16.4460 C   0  0  0  0  0  0  0  0  0  0  0  0
    6.1220    2.4460  -16.8580 C   0  0  0  0  0  3  0  0  0  0  0  0
    6.5260    1.1360  -16.5710 C   0  0  0  0  0  3  0  0  0  0  0  0
    7.7120    0.9670  -15.8440 C   0  0  0  0  0  0  0  0  0  0  0  0
    8.4710    2.0530  -15.4180 C   0  0  0  0  0  0  0  0  0  0  0  0
    8.0500    3.3600  -15.7160 C   0  0  0  0  0  3  0  0  0  0  0  0
    9.5870    1.6320  -14.7390 N   0  0  0  0  0  0  0  0  0  0  0  0
    9.5250    0.3150  -14.7040 C   0  0  0  0  0  0  0  0  0  0  0  0
    8.4150   -0.1380  -15.4050 N   0  0  0  0  0  0  0  0  0  0  0  0
    8.1060   -1.5340  -15.7040 C   0  0  0  0  0  3  0  0  0  0  0  0
    9.0810   -2.1640  -16.7100 C   0  0  0  0  0  2  0  0  0  0  0  0
    8.6850   -3.6030  -17.0380 C   0  0  0  0  0  2  0  0  0  0  0  0
    8.5400   -4.4510  -15.7780 C   0  0  0  0  0  2  0  0  0  0  0  0
    7.5580   -3.8290  -14.7880 C   0  0  0  0  0  2  0  0  0  0  0  0
    7.9450   -2.3930  -14.4380 C   0  0  0  0  0  2  0  0  0  0  0  0
    5.1480    5.1280  -16.9780 O   0  0  0  0  0  0  0  0  0  0  0  0
    6.3940    4.9680  -16.7830 C   0  0  0  0  0  0  0  0  0  0  0  0
    7.2780    5.8790  -16.8500 O   0  0  0  0  0  1  0  0  0  0  0  0
   13.5540   -2.9330  -12.4650 O   0  0  0  0  0  0  0  0  0  0  0  0
   13.5090   -4.3020  -12.8950 C   0  0  0  0  0  2  0  0  0  0  0  0
   12.2990   -5.0430  -12.3550 C   0  0  0  0  0  0  0  0  0  0  0  0
   11.2360   -5.3320  -13.2340 C   0  0  0  0  0  3  0  0  0  0  0  0
   10.0950   -5.9990  -12.7910 C   0  0  0  0  0  3  0  0  0  0  0  0
    9.9900   -6.3790  -11.4590 C   0  0  0  0  0  3  0  0  0  0  0  0
   11.0250   -6.0870  -10.5710 C   0  0  0  0  0  3  0  0  0  0  0  0
   12.1870   -5.4130  -10.9960 C   0  0  0  0  0  0  0  0  0  0  0  0
   13.2320   -5.1280  -10.0070 C   0  0  0  0  0  0  0  0  0  0  0  0
   14.4820   -5.7620  -10.0810 C   0  0  0  0  0  3  0  0  0  0  0  0
   15.4760   -5.4900   -9.1380 C   0  0  0  0  0  3  0  0  0  0  0  0
   15.2330   -4.5770   -8.1120 C   0  0  0  0  0  3  0  0  0  0  0  0
   13.9980   -3.9360   -8.0290 C   0  0  0  0  0  3  0  0  0  0  0  0
   13.0050   -4.2080   -8.9720 C   0  0  0  0  0  3  0  0  0  0  0  0
  1  6  1  0  0  0  0
  2  3  1  0  0  0  0
  2  1  2  0  0  0  0
  3  4  2  0  0  0  0
  4 26  1  0  0  0  0
  4  5  1  0  0  0  0
  6  5  2  0  0  0  0
  6  7  1  0  0  0  0
  8 13  1  0  0  0  0
  9 10  1  0  0  0  0
  9  8  2  0  0  0  0
 10 11  2  0  0  0  0
 11 12  1  0  0  0  0
 11 16  1  0  0  0  0
 12 14  1  0  0  0  0
 13 12  2  0  0  0  0
 14 15  2  0  0  0  0
 15  1  1  0  0  0  0
 16 15  1  0  0  0  0
 17 16  1  0  0  0  0
 17 22  1  0  0  0  0
 18 17  1  0  0  0  0
 19 18  1  0  0  0  0
 19 20  1  0  0  0  0
 20 21  1  0  0  0  0
 21 22  1  0  0  0  0
 23 24  2  0  0  0  0
 24  8  1  0  0  0  0
 25 24  1  0  0  0  0
 27 26  1  0  0  0  0
 27 28  1  0  0  0  0
 28 33  1  0  0  0  0
 29 30  1  0  0  0  0
 29 28  2  0  0  0  0
 30 31  2  0  0  0  0
 31 32  1  0  0  0  0
 33 32  2  0  0  0  0
 33 34  1  0  0  0  0
 34 39  1  0  0  0  0
 35 34  2  0  0  0  0
 35 36  1  0  0  0  0
 36 37  2  0  0  0  0
 37 38  1  0  0  0  0
 39 38  2  0  0  0  0
M  END
>  <minimizedAffinity>
-6.82701445

$$$$
