
 OpenBabel09122222393D

 39 44  0  0  0  0  0  0  0  0999 V2000
    9.5530   -0.0540    2.4810 C   0  0  0  0  0  0  0  0  0  0  0  0
    9.4310    1.0570    1.6400 C   0  0  0  0  0  3  0  0  0  0  0  0
    9.7850    2.3300    2.0950 C   0  0  0  0  0  3  0  0  0  0  0  0
   10.2270    2.5180    3.4060 C   0  0  0  0  0  0  0  0  0  0  0  0
   10.3440    1.4190    4.2540 C   0  0  0  0  0  3  0  0  0  0  0  0
   10.0010    0.1490    3.7890 C   0  0  0  0  0  0  0  0  0  0  0  0
   10.1430   -0.8890    4.6270 F   0  0  0  0  0  0  0  0  0  0  0  0
    7.4770   -5.4910    1.0630 C   0  0  0  0  0  0  0  0  0  0  0  0
    8.3460   -5.3770   -0.0330 C   0  0  0  0  0  3  0  0  0  0  0  0
    9.1450   -4.2450   -0.2390 C   0  0  0  0  0  3  0  0  0  0  0  0
    9.0540   -3.2080    0.6980 C   0  0  0  0  0  0  0  0  0  0  0  0
    8.2050   -3.2860    1.7980 C   0  0  0  0  0  0  0  0  0  0  0  0
    7.4110   -4.4290    1.9870 C   0  0  0  0  0  3  0  0  0  0  0  0
    8.2850   -2.1470    2.5580 N   0  0  0  0  0  0  0  0  0  0  0  0
    9.1860   -1.3760    1.9800 C   0  0  0  0  0  0  0  0  0  0  0  0
    9.6530   -1.9680    0.8130 N   0  0  0  0  0  0  0  0  0  0  0  0
   10.5430   -1.3440   -0.1630 C   0  0  0  0  0  3  0  0  0  0  0  0
   11.5860   -2.3170   -0.7340 C   0  0  0  0  0  2  0  0  0  0  0  0
   12.5310   -1.6090   -1.7040 C   0  0  0  0  0  2  0  0  0  0  0  0
   11.7670   -0.8810   -2.8070 C   0  0  0  0  0  2  0  0  0  0  0  0
   10.7430    0.0960   -2.2350 C   0  0  0  0  0  2  0  0  0  0  0  0
    9.7810   -0.5970   -1.2710 C   0  0  0  0  0  2  0  0  0  0  0  0
    6.4810   -7.1630    2.4340 O   0  0  0  0  0  1  0  0  0  0  0  0
    6.6240   -6.7310    1.2460 C   0  0  0  0  0  0  0  0  0  0  0  0
    6.1160   -7.2500    0.2020 O   0  0  0  0  0  0  0  0  0  0  0  0
   10.5720    3.8020    3.7290 O   0  0  0  0  0  0  0  0  0  0  0  0
   10.8770    4.6830    2.6360 C   0  0  0  0  0  2  0  0  0  0  0  0
   12.0520    5.5950    2.9360 C   0  0  0  0  0  0  0  0  0  0  0  0
   12.9960    5.1890    3.9000 C   0  0  0  0  0  3  0  0  0  0  0  0
   14.0880    5.9910    4.2240 C   0  0  0  0  0  3  0  0  0  0  0  0
   14.2530    7.2200    3.5980 C   0  0  0  0  0  3  0  0  0  0  0  0
   13.3210    7.6470    2.6520 C   0  0  0  0  0  3  0  0  0  0  0  0
   12.2090    6.8530    2.3100 C   0  0  0  0  0  0  0  0  0  0  0  0
   11.2610    7.3670    1.3150 C   0  0  0  0  0  0  0  0  0  0  0  0
   11.4100    7.0570   -0.0460 C   0  0  0  0  0  3  0  0  0  0  0  0
   10.5080    7.5480   -0.9920 C   0  0  0  0  0  3  0  0  0  0  0  0
    9.4430    8.3520   -0.5880 C   0  0  0  0  0  3  0  0  0  0  0  0
    9.2790    8.6650    0.7610 C   0  0  0  0  0  3  0  0  0  0  0  0
   10.1810    8.1730    1.7060 C   0  0  0  0  0  3  0  0  0  0  0  0
  1  6  1  0  0  0  0
  2  3  1  0  0  0  0
  2  1  2  0  0  0  0
  3  4  2  0  0  0  0
  4 26  1  0  0  0  0
  4  5  1  0  0  0  0
  6  5  2  0  0  0  0
  6  7  1  0  0  0  0
  8 24  1  0  0  0  0
  8 13  1  0  0  0  0
  9  8  2  0  0  0  0
 10  9  1  0  0  0  0
 10 11  2  0  0  0  0
 11 16  1  0  0  0  0
 11 12  1  0  0  0  0
 12 13  2  0  0  0  0
 12 14  1  0  0  0  0
 15  1  1  0  0  0  0
 15 14  2  0  0  0  0
 16 15  1  0  0  0  0
 17 16  1  0  0  0  0
 18 17  1  0  0  0  0
 19 18  1  0  0  0  0
 20 21  1  0  0  0  0
 20 19  1  0  0  0  0
 21 22  1  0  0  0  0
 22 17  1  0  0  0  0
 24 23  1  0  0  0  0
 25 24  2  0  0  0  0
 27 28  1  0  0  0  0
 27 26  1  0  0  0  0
 28 29  1  0  0  0  0
 29 30  2  0  0  0  0
 31 30  1  0  0  0  0
 32 31  2  0  0  0  0
 33 32  1  0  0  0  0
 33 28  2  0  0  0  0
 34 39  1  0  0  0  0
 34 33  1  0  0  0  0
 35 34  2  0  0  0  0
 36 37  2  0  0  0  0
 36 35  1  0  0  0  0
 37 38  1  0  0  0  0
 38 39  2  0  0  0  0
M  END
>  <minimizedAffinity>
-6.45742321

$$$$
