
 OpenBabel09122222393D

 39 44  0  0  0  0  0  0  0  0999 V2000
    9.4970   -0.1330    2.0420 C   0  0  0  0  0  0  0  0  0  0  0  0
    9.1510   -0.9540    0.9630 C   0  0  0  0  0  3  0  0  0  0  0  0
    8.8130   -2.2930    1.1750 C   0  0  0  0  0  3  0  0  0  0  0  0
    8.8520   -2.8410    2.4590 C   0  0  0  0  0  0  0  0  0  0  0  0
    9.2030   -2.0340    3.5390 C   0  0  0  0  0  3  0  0  0  0  0  0
    9.5280   -0.6940    3.3210 C   0  0  0  0  0  0  0  0  0  0  0  0
    9.8440    0.0590    4.3850 F   0  0  0  0  0  0  0  0  0  0  0  0
   10.6290    5.7460    1.8380 C   0  0  0  0  0  0  0  0  0  0  0  0
   11.1560    5.4530    0.5710 C   0  0  0  0  0  3  0  0  0  0  0  0
   11.1670    4.1530    0.0480 C   0  0  0  0  0  3  0  0  0  0  0  0
   10.6240    3.1320    0.8380 C   0  0  0  0  0  0  0  0  0  0  0  0
   10.0910    3.3850    2.0990 C   0  0  0  0  0  0  0  0  0  0  0  0
   10.0900    4.6950    2.6060 C   0  0  0  0  0  3  0  0  0  0  0  0
    9.6340    2.2280    2.6760 N   0  0  0  0  0  0  0  0  0  0  0  0
    9.8380    1.2670    1.7960 C   0  0  0  0  0  0  0  0  0  0  0  0
   10.4810    1.7670    0.6720 N   0  0  0  0  0  0  0  0  0  0  0  0
   10.9990    0.9740   -0.4400 C   0  0  0  0  0  3  0  0  0  0  0  0
    9.9500    0.7120   -1.5320 C   0  0  0  0  0  2  0  0  0  0  0  0
   10.5170   -0.1700   -2.6440 C   0  0  0  0  0  2  0  0  0  0  0  0
   11.8070    0.4060   -3.2200 C   0  0  0  0  0  2  0  0  0  0  0  0
   12.8520    0.6500   -2.1330 C   0  0  0  0  0  2  0  0  0  0  0  0
   12.3070    1.5410   -1.0180 C   0  0  0  0  0  2  0  0  0  0  0  0
   11.5700    7.9300    1.9510 O   0  0  0  0  0  0  0  0  0  0  0  0
   10.6440    7.1660    2.3710 C   0  0  0  0  0  0  0  0  0  0  0  0
    9.7330    7.4890    3.1970 O   0  0  0  0  0  1  0  0  0  0  0  0
    8.4720   -4.1520    2.5470 O   0  0  0  0  0  0  0  0  0  0  0  0
    7.0660   -4.4100    2.6880 C   0  0  0  0  0  2  0  0  0  0  0  0
    6.5000   -5.2000    1.5230 C   0  0  0  0  0  0  0  0  0  0  0  0
    7.2710   -5.3200    0.3490 C   0  0  0  0  0  3  0  0  0  0  0  0
    6.7970   -6.0230   -0.7560 C   0  0  0  0  0  3  0  0  0  0  0  0
    5.5390   -6.6110   -0.7140 C   0  0  0  0  0  3  0  0  0  0  0  0
    4.7550   -6.4890    0.4320 C   0  0  0  0  0  3  0  0  0  0  0  0
    5.2130   -5.7820    1.5610 C   0  0  0  0  0  0  0  0  0  0  0  0
    4.3320   -5.6830    2.7310 C   0  0  0  0  0  0  0  0  0  0  0  0
    3.9720   -6.8290    3.4570 C   0  0  0  0  0  3  0  0  0  0  0  0
    3.1330   -6.7340    4.5690 C   0  0  0  0  0  3  0  0  0  0  0  0
    2.6470   -5.4910    4.9710 C   0  0  0  0  0  3  0  0  0  0  0  0
    3.0010   -4.3430    4.2630 C   0  0  0  0  0  3  0  0  0  0  0  0
    3.8400   -4.4390    3.1510 C   0  0  0  0  0  3  0  0  0  0  0  0
  1  6  1  0  0  0  0
  2  3  1  0  0  0  0
  2  1  2  0  0  0  0
  3  4  2  0  0  0  0
  4 26  1  0  0  0  0
  4  5  1  0  0  0  0
  6  5  2  0  0  0  0
  6  7  1  0  0  0  0
  8 24  1  0  0  0  0
  8 13  1  0  0  0  0
  9  8  2  0  0  0  0
 10  9  1  0  0  0  0
 10 11  2  0  0  0  0
 11 12  1  0  0  0  0
 12 13  2  0  0  0  0
 12 14  1  0  0  0  0
 15  1  1  0  0  0  0
 15 14  2  0  0  0  0
 16 11  1  0  0  0  0
 16 15  1  0  0  0  0
 17 16  1  0  0  0  0
 18 17  1  0  0  0  0
 19 18  1  0  0  0  0
 20 19  1  0  0  0  0
 20 21  1  0  0  0  0
 21 22  1  0  0  0  0
 22 17  1  0  0  0  0
 23 24  2  0  0  0  0
 24 25  1  0  0  0  0
 26 27  1  0  0  0  0
 28 33  1  0  0  0  0
 28 27  1  0  0  0  0
 29 28  2  0  0  0  0
 30 31  2  0  0  0  0
 30 29  1  0  0  0  0
 31 32  1  0  0  0  0
 32 33  2  0  0  0  0
 33 34  1  0  0  0  0
 34 39  2  0  0  0  0
 34 35  1  0  0  0  0
 35 36  2  0  0  0  0
 36 37  1  0  0  0  0
 38 37  2  0  0  0  0
 39 38  1  0  0  0  0
M  END
>  <minimizedAffinity>
-6.44336176

$$$$
