
 OpenBabel09122222393D

 39 44  0  0  0  0  0  0  0  0999 V2000
    9.3840   -2.1190  -14.0810 C   0  0  0  0  0  0  0  0  0  0  0  0
   10.2310   -3.0660  -14.6680 C   0  0  0  0  0  3  0  0  0  0  0  0
   11.5330   -3.2400  -14.1920 C   0  0  0  0  0  3  0  0  0  0  0  0
   12.0210   -2.4470  -13.1510 C   0  0  0  0  0  0  0  0  0  0  0  0
   11.1880   -1.4970  -12.5650 C   0  0  0  0  0  3  0  0  0  0  0  0
    9.8850   -1.3370  -13.0380 C   0  0  0  0  0  0  0  0  0  0  0  0
    9.1040   -0.4240  -12.4390 F   0  0  0  0  0  0  0  0  0  0  0  0
    3.6400   -2.2210  -15.7790 C   0  0  0  0  0  0  0  0  0  0  0  0
    3.9250   -0.9510  -16.3060 C   0  0  0  0  0  3  0  0  0  0  0  0
    5.1930   -0.3660  -16.2020 C   0  0  0  0  0  3  0  0  0  0  0  0
    6.1930   -1.0960  -15.5470 C   0  0  0  0  0  0  0  0  0  0  0  0
    5.9480   -2.3580  -15.0130 C   0  0  0  0  0  0  0  0  0  0  0  0
    4.6690   -2.9290  -15.1270 C   0  0  0  0  0  3  0  0  0  0  0  0
    7.0750   -2.8620  -14.4150 N   0  0  0  0  0  0  0  0  0  0  0  0
    8.0230   -1.9620  -14.5900 C   0  0  0  0  0  0  0  0  0  0  0  0
    7.5170   -0.8450  -15.2420 N   0  0  0  0  0  0  0  0  0  0  0  0
    8.2340    0.4060  -15.4740 C   0  0  0  0  0  3  0  0  0  0  0  0
    8.5190    0.6700  -16.9600 C   0  0  0  0  0  2  0  0  0  0  0  0
    9.3210    1.9570  -17.1500 C   0  0  0  0  0  2  0  0  0  0  0  0
    8.6450    3.1490  -16.4790 C   0  0  0  0  0  2  0  0  0  0  0  0
    8.3780    2.8880  -14.9990 C   0  0  0  0  0  2  0  0  0  0  0  0
    7.5650    1.6110  -14.7900 C   0  0  0  0  0  2  0  0  0  0  0  0
    2.1700   -4.0840  -15.9690 O   0  0  0  0  0  0  0  0  0  0  0  0
    2.2510   -2.8160  -15.9070 C   0  0  0  0  0  0  0  0  0  0  0  0
    1.2710   -2.0070  -15.9460 O   0  0  0  0  0  1  0  0  0  0  0  0
   13.2980   -2.7280  -12.7510 O   0  0  0  0  0  0  0  0  0  0  0  0
   13.5680   -4.0820  -12.3540 C   0  0  0  0  0  2  0  0  0  0  0  0
   12.9050   -4.4460  -11.0380 C   0  0  0  0  0  0  0  0  0  0  0  0
   13.3550   -3.8200   -9.8590 C   0  0  0  0  0  3  0  0  0  0  0  0
   12.7920   -4.1230   -8.6210 C   0  0  0  0  0  3  0  0  0  0  0  0
   11.7750   -5.0670   -8.5360 C   0  0  0  0  0  3  0  0  0  0  0  0
   11.3280   -5.7090   -9.6910 C   0  0  0  0  0  3  0  0  0  0  0  0
   11.8830   -5.4180  -10.9530 C   0  0  0  0  0  0  0  0  0  0  0  0
   11.3730   -6.1390  -12.1250 C   0  0  0  0  0  0  0  0  0  0  0  0
   10.0230   -6.0410  -12.4950 C   0  0  0  0  0  3  0  0  0  0  0  0
    9.5380   -6.7280  -13.6110 C   0  0  0  0  0  3  0  0  0  0  0  0
   10.4000   -7.5180  -14.3720 C   0  0  0  0  0  3  0  0  0  0  0  0
   11.7450   -7.6200  -14.0190 C   0  0  0  0  0  3  0  0  0  0  0  0
   12.2280   -6.9330  -12.9030 C   0  0  0  0  0  3  0  0  0  0  0  0
  1  6  1  0  0  0  0
  2  3  1  0  0  0  0
  2  1  2  0  0  0  0
  3  4  2  0  0  0  0
  4 26  1  0  0  0  0
  4  5  1  0  0  0  0
  6  5  2  0  0  0  0
  6  7  1  0  0  0  0
  8 13  1  0  0  0  0
  9 10  1  0  0  0  0
  9  8  2  0  0  0  0
 10 11  2  0  0  0  0
 11 16  1  0  0  0  0
 11 12  1  0  0  0  0
 12 14  1  0  0  0  0
 13 12  2  0  0  0  0
 15 14  2  0  0  0  0
 15  1  1  0  0  0  0
 16 15  1  0  0  0  0
 17 16  1  0  0  0  0
 17 22  1  0  0  0  0
 18 17  1  0  0  0  0
 19 18  1  0  0  0  0
 19 20  1  0  0  0  0
 20 21  1  0  0  0  0
 21 22  1  0  0  0  0
 23 24  2  0  0  0  0
 24  8  1  0  0  0  0
 25 24  1  0  0  0  0
 26 27  1  0  0  0  0
 27 28  1  0  0  0  0
 28 33  2  0  0  0  0
 28 29  1  0  0  0  0
 29 30  2  0  0  0  0
 30 31  1  0  0  0  0
 32 31  2  0  0  0  0
 33 32  1  0  0  0  0
 34 33  1  0  0  0  0
 35 34  1  0  0  0  0
 36 35  2  0  0  0  0
 37 38  2  0  0  0  0
 37 36  1  0  0  0  0
 38 39  1  0  0  0  0
 39 34  2  0  0  0  0
M  END
>  <minimizedAffinity>
-6.62500429

$$$$
