
 OpenBabel09122218153D

 39 44  0  0  0  0  0  0  0  0999 V2000
    9.7510    1.7900    1.8550 C   0  0  0  0  0  0  0  0  0  0  0  0
    9.5050    0.7500    0.9520 C   0  0  0  0  0  3  0  0  0  0  0  0
    9.2630   -0.5460    1.4170 C   0  0  0  0  0  3  0  0  0  0  0  0
    9.3000   -0.8290    2.7840 C   0  0  0  0  0  0  0  0  0  0  0  0
    9.5520    0.1990    3.6900 C   0  0  0  0  0  3  0  0  0  0  0  0
    9.7810    1.4920    3.2190 C   0  0  0  0  0  0  0  0  0  0  0  0
   10.0030    2.4610    4.1210 F   0  0  0  0  0  0  0  0  0  0  0  0
    9.9970    7.2260   -0.6510 C   0  0  0  0  0  0  0  0  0  0  0  0
   11.1510    7.3760    0.1350 C   0  0  0  0  0  3  0  0  0  0  0  0
   11.6150    6.3620    0.9840 C   0  0  0  0  0  3  0  0  0  0  0  0
   10.8840    5.1680    1.0270 C   0  0  0  0  0  0  0  0  0  0  0  0
    9.7360    4.9820    0.2610 C   0  0  0  0  0  0  0  0  0  0  0  0
    9.2870    6.0110   -0.5830 C   0  0  0  0  0  3  0  0  0  0  0  0
    9.1950    3.7420    0.4860 N   0  0  0  0  0  0  0  0  0  0  0  0
    9.9930    3.1380    1.3450 C   0  0  0  0  0  0  0  0  0  0  0  0
   11.0170    3.9900    1.7370 N   0  0  0  0  0  0  0  0  0  0  0  0
   11.9990    3.7190    2.7840 C   0  0  0  0  0  3  0  0  0  0  0  0
   13.3890    3.3690    2.2300 C   0  0  0  0  0  2  0  0  0  0  0  0
   14.3670    3.0360    3.3560 C   0  0  0  0  0  2  0  0  0  0  0  0
   14.4320    4.1510    4.3960 C   0  0  0  0  0  2  0  0  0  0  0  0
   13.0520    4.4850    4.9550 C   0  0  0  0  0  2  0  0  0  0  0  0
   12.0630    4.8330    3.8430 C   0  0  0  0  0  2  0  0  0  0  0  0
    9.2000    9.4430   -0.9880 O   0  0  0  0  0  1  0  0  0  0  0  0
    9.5260    8.3500   -1.5520 C   0  0  0  0  0  0  0  0  0  0  0  0
    9.4870    8.1200   -2.8020 O   0  0  0  0  0  0  0  0  0  0  0  0
    9.0180   -2.1240    3.1210 O   0  0  0  0  0  0  0  0  0  0  0  0
    9.7610   -3.1460    2.4380 C   0  0  0  0  0  2  0  0  0  0  0  0
    8.9250   -3.8830    1.4080 C   0  0  0  0  0  0  0  0  0  0  0  0
    7.7720   -4.5690    1.8380 C   0  0  0  0  0  3  0  0  0  0  0  0
    6.9730   -5.2720    0.9380 C   0  0  0  0  0  3  0  0  0  0  0  0
    7.3170   -5.3120   -0.4070 C   0  0  0  0  0  3  0  0  0  0  0  0
    8.4630   -4.6520   -0.8490 C   0  0  0  0  0  3  0  0  0  0  0  0
    9.2860   -3.9360    0.0420 C   0  0  0  0  0  0  0  0  0  0  0  0
   10.4840   -3.2740   -0.4880 C   0  0  0  0  0  0  0  0  0  0  0  0
   10.3720   -2.2000   -1.3840 C   0  0  0  0  0  3  0  0  0  0  0  0
   11.5120   -1.5710   -1.8890 C   0  0  0  0  0  3  0  0  0  0  0  0
   12.7780   -2.0070   -1.5000 C   0  0  0  0  0  3  0  0  0  0  0  0
   12.9050   -3.0690   -0.6060 C   0  0  0  0  0  3  0  0  0  0  0  0
   11.7640   -3.6970   -0.1020 C   0  0  0  0  0  3  0  0  0  0  0  0
  1  6  1  0  0  0  0
  2  3  1  0  0  0  0
  2  1  2  0  0  0  0
  3  4  2  0  0  0  0
  4 26  1  0  0  0  0
  4  5  1  0  0  0  0
  6  5  2  0  0  0  0
  6  7  1  0  0  0  0
  8 13  2  0  0  0  0
  8  9  1  0  0  0  0
  9 10  2  0  0  0  0
 10 11  1  0  0  0  0
 11 16  1  0  0  0  0
 12 14  1  0  0  0  0
 12 11  2  0  0  0  0
 13 12  1  0  0  0  0
 14 15  2  0  0  0  0
 15 16  1  0  0  0  0
 15  1  1  0  0  0  0
 16 17  1  0  0  0  0
 17 22  1  0  0  0  0
 18 17  1  0  0  0  0
 18 19  1  0  0  0  0
 19 20  1  0  0  0  0
 20 21  1  0  0  0  0
 22 21  1  0  0  0  0
 24 23  1  0  0  0  0
 24  8  1  0  0  0  0
 25 24  2  0  0  0  0
 27 26  1  0  0  0  0
 28 29  1  0  0  0  0
 28 27  1  0  0  0  0
 30 29  2  0  0  0  0
 31 30  1  0  0  0  0
 32 31  2  0  0  0  0
 32 33  1  0  0  0  0
 33 28  2  0  0  0  0
 34 39  1  0  0  0  0
 34 33  1  0  0  0  0
 35 34  2  0  0  0  0
 36 37  2  0  0  0  0
 36 35  1  0  0  0  0
 37 38  1  0  0  0  0
 38 39  2  0  0  0  0
M  END
>  <minimizedAffinity>
-6.98186541

$$$$

 OpenBabel09122218153D

 39 44  0  0  0  0  0  0  0  0999 V2000
    8.4210   -4.2050  -14.0940 C   0  0  0  0  0  0  0  0  0  0  0  0
    9.7230   -4.2310  -14.6050 C   0  0  0  0  0  3  0  0  0  0  0  0
   10.6400   -5.1840  -14.1530 C   0  0  0  0  0  3  0  0  0  0  0  0
   10.2840   -6.0980  -13.1590 C   0  0  0  0  0  0  0  0  0  0  0  0
    8.9920   -6.0740  -12.6380 C   0  0  0  0  0  3  0  0  0  0  0  0
    8.0780   -5.1270  -13.1030 C   0  0  0  0  0  0  0  0  0  0  0  0
    6.8370   -5.1450  -12.5920 F   0  0  0  0  0  0  0  0  0  0  0  0
    3.9630   -0.7280  -16.0750 C   0  0  0  0  0  0  0  0  0  0  0  0
    4.9310    0.2870  -16.0340 C   0  0  0  0  0  3  0  0  0  0  0  0
    6.2480    0.0480  -15.6210 C   0  0  0  0  0  3  0  0  0  0  0  0
    6.5830   -1.2600  -15.2440 C   0  0  0  0  0  0  0  0  0  0  0  0
    5.6500   -2.2920  -15.2730 C   0  0  0  0  0  0  0  0  0  0  0  0
    4.3330   -2.0320  -15.6890 C   0  0  0  0  0  3  0  0  0  0  0  0
    6.2120   -3.4700  -14.8490 N   0  0  0  0  0  0  0  0  0  0  0  0
    7.4770   -3.2050  -14.5890 C   0  0  0  0  0  0  0  0  0  0  0  0
    7.7390   -1.8540  -14.7760 N   0  0  0  0  0  0  0  0  0  0  0  0
    8.9870   -1.1720  -14.4430 C   0  0  0  0  0  3  0  0  0  0  0  0
    9.7510   -0.6760  -15.6810 C   0  0  0  0  0  2  0  0  0  0  0  0
   11.0760   -0.0230  -15.2900 C   0  0  0  0  0  2  0  0  0  0  0  0
   10.8770    1.0860  -14.2610 C   0  0  0  0  0  2  0  0  0  0  0  0
   10.1320    0.5850  -13.0260 C   0  0  0  0  0  2  0  0  0  0  0  0
    8.7970   -0.0610  -13.3970 C   0  0  0  0  0  2  0  0  0  0  0  0
    2.3590    0.6660  -17.1460 O   0  0  0  0  0  0  0  0  0  0  0  0
    2.5460   -0.4260  -16.5210 C   0  0  0  0  0  0  0  0  0  0  0  0
    1.6490   -1.2810  -16.2380 O   0  0  0  0  0  1  0  0  0  0  0  0
   11.2540   -7.0000  -12.8190 O   0  0  0  0  0  0  0  0  0  0  0  0
   12.5870   -6.7170  -13.2720 C   0  0  0  0  0  2  0  0  0  0  0  0
   13.6000   -6.7300  -12.1420 C   0  0  0  0  0  0  0  0  0  0  0  0
   14.0470   -7.9720  -11.6490 C   0  0  0  0  0  3  0  0  0  0  0  0
   14.9670   -8.0450  -10.6050 C   0  0  0  0  0  3  0  0  0  0  0  0
   15.4500   -6.8770  -10.0260 C   0  0  0  0  0  3  0  0  0  0  0  0
   15.0070   -5.6390  -10.4900 C   0  0  0  0  0  3  0  0  0  0  0  0
   14.0770   -5.5410  -11.5430 C   0  0  0  0  0  0  0  0  0  0  0  0
   13.6440   -4.2070  -11.9750 C   0  0  0  0  0  0  0  0  0  0  0  0
   14.3410   -3.5170  -12.9790 C   0  0  0  0  0  3  0  0  0  0  0  0
   13.9290   -2.2470  -13.3880 C   0  0  0  0  0  3  0  0  0  0  0  0
   12.8130   -1.6530  -12.8000 C   0  0  0  0  0  3  0  0  0  0  0  0
   12.1080   -2.3290  -11.8040 C   0  0  0  0  0  3  0  0  0  0  0  0
   12.5210   -3.5990  -11.3960 C   0  0  0  0  0  3  0  0  0  0  0  0
  1  6  1  0  0  0  0
  2  3  1  0  0  0  0
  2  1  2  0  0  0  0
  3  4  2  0  0  0  0
  4 26  1  0  0  0  0
  4  5  1  0  0  0  0
  6  5  2  0  0  0  0
  6  7  1  0  0  0  0
  8  9  2  0  0  0  0
  8 13  1  0  0  0  0
  9 10  1  0  0  0  0
 10 11  2  0  0  0  0
 11 16  1  0  0  0  0
 12 11  1  0  0  0  0
 12 14  1  0  0  0  0
 13 12  2  0  0  0  0
 14 15  2  0  0  0  0
 15  1  1  0  0  0  0
 16 15  1  0  0  0  0
 16 17  1  0  0  0  0
 17 22  1  0  0  0  0
 18 19  1  0  0  0  0
 18 17  1  0  0  0  0
 19 20  1  0  0  0  0
 20 21  1  0  0  0  0
 22 21  1  0  0  0  0
 23 24  2  0  0  0  0
 24 25  1  0  0  0  0
 24  8  1  0  0  0  0
 27 26  1  0  0  0  0
 27 28  1  0  0  0  0
 28 29  2  0  0  0  0
 28 33  1  0  0  0  0
 29 30  1  0  0  0  0
 30 31  2  0  0  0  0
 32 31  1  0  0  0  0
 33 32  2  0  0  0  0
 34 33  1  0  0  0  0
 34 39  1  0  0  0  0
 35 34  2  0  0  0  0
 36 35  1  0  0  0  0
 36 37  2  0  0  0  0
 37 38  1  0  0  0  0
 38 39  2  0  0  0  0
M  END
>  <minimizedAffinity>
-6.94687796

$$$$

 OpenBabel09122218153D

 39 44  0  0  0  0  0  0  0  0999 V2000
   10.5470   -0.5200  -14.0760 C   0  0  0  0  0  0  0  0  0  0  0  0
   11.6250   -0.9770  -14.8420 C   0  0  0  0  0  3  0  0  0  0  0  0
   12.6090   -1.7840  -14.2650 C   0  0  0  0  0  3  0  0  0  0  0  0
   12.5530   -2.1150  -12.9090 C   0  0  0  0  0  0  0  0  0  0  0  0
   11.4870   -1.6580  -12.1370 C   0  0  0  0  0  3  0  0  0  0  0  0
   10.5020   -0.8630  -12.7230 C   0  0  0  0  0  0  0  0  0  0  0  0
    9.4800   -0.4550  -11.9530 F   0  0  0  0  0  0  0  0  0  0  0  0
    6.8620    3.5660  -16.4460 C   0  0  0  0  0  0  0  0  0  0  0  0
    6.1220    2.4460  -16.8580 C   0  0  0  0  0  3  0  0  0  0  0  0
    6.5260    1.1360  -16.5710 C   0  0  0  0  0  3  0  0  0  0  0  0
    7.7120    0.9670  -15.8440 C   0  0  0  0  0  0  0  0  0  0  0  0
    8.4710    2.0530  -15.4180 C   0  0  0  0  0  0  0  0  0  0  0  0
    8.0500    3.3600  -15.7160 C   0  0  0  0  0  3  0  0  0  0  0  0
    9.5870    1.6320  -14.7390 N   0  0  0  0  0  0  0  0  0  0  0  0
    9.5250    0.3150  -14.7040 C   0  0  0  0  0  0  0  0  0  0  0  0
    8.4150   -0.1380  -15.4050 N   0  0  0  0  0  0  0  0  0  0  0  0
    8.1060   -1.5340  -15.7040 C   0  0  0  0  0  3  0  0  0  0  0  0
    9.0810   -2.1640  -16.7100 C   0  0  0  0  0  2  0  0  0  0  0  0
    8.6850   -3.6030  -17.0380 C   0  0  0  0  0  2  0  0  0  0  0  0
    8.5400   -4.4510  -15.7780 C   0  0  0  0  0  2  0  0  0  0  0  0
    7.5580   -3.8290  -14.7880 C   0  0  0  0  0  2  0  0  0  0  0  0
    7.9450   -2.3930  -14.4380 C   0  0  0  0  0  2  0  0  0  0  0  0
    5.1480    5.1280  -16.9780 O   0  0  0  0  0  0  0  0  0  0  0  0
    6.3940    4.9680  -16.7830 C   0  0  0  0  0  0  0  0  0  0  0  0
    7.2780    5.8790  -16.8500 O   0  0  0  0  0  1  0  0  0  0  0  0
   13.5540   -2.9330  -12.4650 O   0  0  0  0  0  0  0  0  0  0  0  0
   13.5090   -4.3020  -12.8950 C   0  0  0  0  0  2  0  0  0  0  0  0
   12.2990   -5.0430  -12.3550 C   0  0  0  0  0  0  0  0  0  0  0  0
   11.2360   -5.3320  -13.2340 C   0  0  0  0  0  3  0  0  0  0  0  0
   10.0950   -5.9990  -12.7910 C   0  0  0  0  0  3  0  0  0  0  0  0
    9.9900   -6.3790  -11.4590 C   0  0  0  0  0  3  0  0  0  0  0  0
   11.0250   -6.0870  -10.5710 C   0  0  0  0  0  3  0  0  0  0  0  0
   12.1870   -5.4130  -10.9960 C   0  0  0  0  0  0  0  0  0  0  0  0
   13.2320   -5.1280  -10.0070 C   0  0  0  0  0  0  0  0  0  0  0  0
   14.4820   -5.7620  -10.0810 C   0  0  0  0  0  3  0  0  0  0  0  0
   15.4760   -5.4900   -9.1380 C   0  0  0  0  0  3  0  0  0  0  0  0
   15.2330   -4.5770   -8.1120 C   0  0  0  0  0  3  0  0  0  0  0  0
   13.9980   -3.9360   -8.0290 C   0  0  0  0  0  3  0  0  0  0  0  0
   13.0050   -4.2080   -8.9720 C   0  0  0  0  0  3  0  0  0  0  0  0
  1  6  1  0  0  0  0
  2  3  1  0  0  0  0
  2  1  2  0  0  0  0
  3  4  2  0  0  0  0
  4 26  1  0  0  0  0
  4  5  1  0  0  0  0
  6  5  2  0  0  0  0
  6  7  1  0  0  0  0
  8 13  1  0  0  0  0
  9 10  1  0  0  0  0
  9  8  2  0  0  0  0
 10 11  2  0  0  0  0
 11 12  1  0  0  0  0
 11 16  1  0  0  0  0
 12 14  1  0  0  0  0
 13 12  2  0  0  0  0
 14 15  2  0  0  0  0
 15  1  1  0  0  0  0
 16 15  1  0  0  0  0
 17 16  1  0  0  0  0
 17 22  1  0  0  0  0
 18 17  1  0  0  0  0
 19 18  1  0  0  0  0
 19 20  1  0  0  0  0
 20 21  1  0  0  0  0
 21 22  1  0  0  0  0
 23 24  2  0  0  0  0
 24  8  1  0  0  0  0
 25 24  1  0  0  0  0
 27 26  1  0  0  0  0
 27 28  1  0  0  0  0
 28 33  1  0  0  0  0
 29 30  1  0  0  0  0
 29 28  2  0  0  0  0
 30 31  2  0  0  0  0
 31 32  1  0  0  0  0
 33 32  2  0  0  0  0
 33 34  1  0  0  0  0
 34 39  1  0  0  0  0
 35 34  2  0  0  0  0
 35 36  1  0  0  0  0
 36 37  2  0  0  0  0
 37 38  1  0  0  0  0
 39 38  2  0  0  0  0
M  END
>  <minimizedAffinity>
-6.82701445

$$$$

 OpenBabel09122218153D

 39 44  0  0  0  0  0  0  0  0999 V2000
    9.3840   -2.1190  -14.0810 C   0  0  0  0  0  0  0  0  0  0  0  0
   10.2310   -3.0660  -14.6680 C   0  0  0  0  0  3  0  0  0  0  0  0
   11.5330   -3.2400  -14.1920 C   0  0  0  0  0  3  0  0  0  0  0  0
   12.0210   -2.4470  -13.1510 C   0  0  0  0  0  0  0  0  0  0  0  0
   11.1880   -1.4970  -12.5650 C   0  0  0  0  0  3  0  0  0  0  0  0
    9.8850   -1.3370  -13.0380 C   0  0  0  0  0  0  0  0  0  0  0  0
    9.1040   -0.4240  -12.4390 F   0  0  0  0  0  0  0  0  0  0  0  0
    3.6400   -2.2210  -15.7790 C   0  0  0  0  0  0  0  0  0  0  0  0
    3.9250   -0.9510  -16.3060 C   0  0  0  0  0  3  0  0  0  0  0  0
    5.1930   -0.3660  -16.2020 C   0  0  0  0  0  3  0  0  0  0  0  0
    6.1930   -1.0960  -15.5470 C   0  0  0  0  0  0  0  0  0  0  0  0
    5.9480   -2.3580  -15.0130 C   0  0  0  0  0  0  0  0  0  0  0  0
    4.6690   -2.9290  -15.1270 C   0  0  0  0  0  3  0  0  0  0  0  0
    7.0750   -2.8620  -14.4150 N   0  0  0  0  0  0  0  0  0  0  0  0
    8.0230   -1.9620  -14.5900 C   0  0  0  0  0  0  0  0  0  0  0  0
    7.5170   -0.8450  -15.2420 N   0  0  0  0  0  0  0  0  0  0  0  0
    8.2340    0.4060  -15.4740 C   0  0  0  0  0  3  0  0  0  0  0  0
    8.5190    0.6700  -16.9600 C   0  0  0  0  0  2  0  0  0  0  0  0
    9.3210    1.9570  -17.1500 C   0  0  0  0  0  2  0  0  0  0  0  0
    8.6450    3.1490  -16.4790 C   0  0  0  0  0  2  0  0  0  0  0  0
    8.3780    2.8880  -14.9990 C   0  0  0  0  0  2  0  0  0  0  0  0
    7.5650    1.6110  -14.7900 C   0  0  0  0  0  2  0  0  0  0  0  0
    2.1700   -4.0840  -15.9690 O   0  0  0  0  0  0  0  0  0  0  0  0
    2.2510   -2.8160  -15.9070 C   0  0  0  0  0  0  0  0  0  0  0  0
    1.2710   -2.0070  -15.9460 O   0  0  0  0  0  1  0  0  0  0  0  0
   13.2980   -2.7280  -12.7510 O   0  0  0  0  0  0  0  0  0  0  0  0
   13.5680   -4.0820  -12.3540 C   0  0  0  0  0  2  0  0  0  0  0  0
   12.9050   -4.4460  -11.0380 C   0  0  0  0  0  0  0  0  0  0  0  0
   13.3550   -3.8200   -9.8590 C   0  0  0  0  0  3  0  0  0  0  0  0
   12.7920   -4.1230   -8.6210 C   0  0  0  0  0  3  0  0  0  0  0  0
   11.7750   -5.0670   -8.5360 C   0  0  0  0  0  3  0  0  0  0  0  0
   11.3280   -5.7090   -9.6910 C   0  0  0  0  0  3  0  0  0  0  0  0
   11.8830   -5.4180  -10.9530 C   0  0  0  0  0  0  0  0  0  0  0  0
   11.3730   -6.1390  -12.1250 C   0  0  0  0  0  0  0  0  0  0  0  0
   10.0230   -6.0410  -12.4950 C   0  0  0  0  0  3  0  0  0  0  0  0
    9.5380   -6.7280  -13.6110 C   0  0  0  0  0  3  0  0  0  0  0  0
   10.4000   -7.5180  -14.3720 C   0  0  0  0  0  3  0  0  0  0  0  0
   11.7450   -7.6200  -14.0190 C   0  0  0  0  0  3  0  0  0  0  0  0
   12.2280   -6.9330  -12.9030 C   0  0  0  0  0  3  0  0  0  0  0  0
  1  6  1  0  0  0  0
  2  3  1  0  0  0  0
  2  1  2  0  0  0  0
  3  4  2  0  0  0  0
  4 26  1  0  0  0  0
  4  5  1  0  0  0  0
  6  5  2  0  0  0  0
  6  7  1  0  0  0  0
  8 13  1  0  0  0  0
  9 10  1  0  0  0  0
  9  8  2  0  0  0  0
 10 11  2  0  0  0  0
 11 16  1  0  0  0  0
 11 12  1  0  0  0  0
 12 14  1  0  0  0  0
 13 12  2  0  0  0  0
 15 14  2  0  0  0  0
 15  1  1  0  0  0  0
 16 15  1  0  0  0  0
 17 16  1  0  0  0  0
 17 22  1  0  0  0  0
 18 17  1  0  0  0  0
 19 18  1  0  0  0  0
 19 20  1  0  0  0  0
 20 21  1  0  0  0  0
 21 22  1  0  0  0  0
 23 24  2  0  0  0  0
 24  8  1  0  0  0  0
 25 24  1  0  0  0  0
 26 27  1  0  0  0  0
 27 28  1  0  0  0  0
 28 33  2  0  0  0  0
 28 29  1  0  0  0  0
 29 30  2  0  0  0  0
 30 31  1  0  0  0  0
 32 31  2  0  0  0  0
 33 32  1  0  0  0  0
 34 33  1  0  0  0  0
 35 34  1  0  0  0  0
 36 35  2  0  0  0  0
 37 38  2  0  0  0  0
 37 36  1  0  0  0  0
 38 39  1  0  0  0  0
 39 34  2  0  0  0  0
M  END
>  <minimizedAffinity>
-6.62500429

$$$$

 OpenBabel09122218153D

 39 44  0  0  0  0  0  0  0  0999 V2000
    6.7110   -0.7040  -14.9600 C   0  0  0  0  0  0  0  0  0  0  0  0
    7.6880   -0.8900  -13.9760 C   0  0  0  0  0  3  0  0  0  0  0  0
    8.6270    0.1120  -13.7150 C   0  0  0  0  0  3  0  0  0  0  0  0
    8.6280    1.2960  -14.4570 C   0  0  0  0  0  0  0  0  0  0  0  0
    7.6640    1.4860  -15.4450 C   0  0  0  0  0  3  0  0  0  0  0  0
    6.7230    0.4860  -15.6910 C   0  0  0  0  0  0  0  0  0  0  0  0
    5.7980    0.7110  -16.6380 F   0  0  0  0  0  0  0  0  0  0  0  0
    2.1880   -4.4140  -16.2490 C   0  0  0  0  0  0  0  0  0  0  0  0
    3.1050   -5.4190  -15.9030 C   0  0  0  0  0  3  0  0  0  0  0  0
    4.4130   -5.1280  -15.4940 C   0  0  0  0  0  3  0  0  0  0  0  0
    4.7900   -3.7800  -15.4350 C   0  0  0  0  0  0  0  0  0  0  0  0
    3.9070   -2.7570  -15.7690 C   0  0  0  0  0  0  0  0  0  0  0  0
    2.6000   -3.0680  -16.1770 C   0  0  0  0  0  3  0  0  0  0  0  0
    4.5100   -1.5310  -15.6430 N   0  0  0  0  0  0  0  0  0  0  0  0
    5.7340   -1.7620  -15.2090 C   0  0  0  0  0  0  0  0  0  0  0  0
    5.9630   -3.1280  -15.1070 N   0  0  0  0  0  0  0  0  0  0  0  0
    7.2450   -3.7580  -14.8020 C   0  0  0  0  0  3  0  0  0  0  0  0
    7.1970   -4.6480  -13.5510 C   0  0  0  0  0  2  0  0  0  0  0  0
    8.5710   -5.2380  -13.2360 C   0  0  0  0  0  2  0  0  0  0  0  0
    9.1570   -5.9750  -14.4370 C   0  0  0  0  0  2  0  0  0  0  0  0
    9.2180   -5.0820  -15.6740 C   0  0  0  0  0  2  0  0  0  0  0  0
    7.8500   -4.4930  -16.0120 C   0  0  0  0  0  2  0  0  0  0  0  0
    0.4340   -5.9890  -16.5780 O   0  0  0  0  0  1  0  0  0  0  0  0
    0.7830   -4.7720  -16.6930 C   0  0  0  0  0  0  0  0  0  0  0  0
    0.0580   -3.8330  -17.1510 O   0  0  0  0  0  0  0  0  0  0  0  0
    9.5740    2.2130  -14.0930 O   0  0  0  0  0  0  0  0  0  0  0  0
   10.3360    1.9220  -12.9110 C   0  0  0  0  0  2  0  0  0  0  0  0
   11.8250    2.1380  -13.1100 C   0  0  0  0  0  0  0  0  0  0  0  0
   12.3180    3.4580  -13.1410 C   0  0  0  0  0  3  0  0  0  0  0  0
   13.6730    3.7180  -13.3330 C   0  0  0  0  0  3  0  0  0  0  0  0
   14.5610    2.6640  -13.5090 C   0  0  0  0  0  3  0  0  0  0  0  0
   14.0900    1.3510  -13.4980 C   0  0  0  0  0  3  0  0  0  0  0  0
   12.7230    1.0650  -13.3060 C   0  0  0  0  0  0  0  0  0  0  0  0
   12.2930   -0.3380  -13.3170 C   0  0  0  0  0  0  0  0  0  0  0  0
   12.3270   -1.1070  -12.1430 C   0  0  0  0  0  3  0  0  0  0  0  0
   11.9180   -2.4430  -12.1550 C   0  0  0  0  0  3  0  0  0  0  0  0
   11.4670   -3.0240  -13.3400 C   0  0  0  0  0  3  0  0  0  0  0  0
   11.4230   -2.2700  -14.5120 C   0  0  0  0  0  3  0  0  0  0  0  0
   11.8310   -0.9350  -14.4990 C   0  0  0  0  0  3  0  0  0  0  0  0
  1  2  1  0  0  0  0
  2  3  2  0  0  0  0
  4 26  1  0  0  0  0
  4  3  1  0  0  0  0
  5  4  2  0  0  0  0
  6  5  1  0  0  0  0
  6  1  2  0  0  0  0
  7  6  1  0  0  0  0
  8 13  2  0  0  0  0
  8  9  1  0  0  0  0
  9 10  2  0  0  0  0
 10 11  1  0  0  0  0
 11 16  1  0  0  0  0
 12 14  1  0  0  0  0
 12 11  2  0  0  0  0
 13 12  1  0  0  0  0
 14 15  2  0  0  0  0
 15 16  1  0  0  0  0
 15  1  1  0  0  0  0
 16 17  1  0  0  0  0
 17 18  1  0  0  0  0
 18 19  1  0  0  0  0
 20 19  1  0  0  0  0
 21 20  1  0  0  0  0
 22 21  1  0  0  0  0
 22 17  1  0  0  0  0
 24 23  1  0  0  0  0
 24  8  1  0  0  0  0
 25 24  2  0  0  0  0
 26 27  1  0  0  0  0
 28 27  1  0  0  0  0
 29 28  1  0  0  0  0
 30 29  2  0  0  0  0
 31 32  2  0  0  0  0
 31 30  1  0  0  0  0
 32 33  1  0  0  0  0
 33 28  2  0  0  0  0
 34 33  1  0  0  0  0
 34 35  1  0  0  0  0
 36 35  2  0  0  0  0
 37 36  1  0  0  0  0
 38 39  1  0  0  0  0
 38 37  2  0  0  0  0
 39 34  2  0  0  0  0
M  END
>  <minimizedAffinity>
-6.56436253

$$$$

 OpenBabel09122218153D

 39 44  0  0  0  0  0  0  0  0999 V2000
    9.6540    0.3680    1.9750 C   0  0  0  0  0  0  0  0  0  0  0  0
    9.6540    1.3520    0.9800 C   0  0  0  0  0  3  0  0  0  0  0  0
    9.9850    2.6730    1.2940 C   0  0  0  0  0  3  0  0  0  0  0  0
   10.2820    3.0380    2.6090 C   0  0  0  0  0  0  0  0  0  0  0  0
   10.2780    2.0660    3.6070 C   0  0  0  0  0  3  0  0  0  0  0  0
    9.9590    0.7470    3.2840 C   0  0  0  0  0  0  0  0  0  0  0  0
    9.9810   -0.1660    4.2670 F   0  0  0  0  0  0  0  0  0  0  0  0
    7.6680   -5.2220    1.1410 C   0  0  0  0  0  0  0  0  0  0  0  0
    8.5710   -5.2270    0.0660 C   0  0  0  0  0  3  0  0  0  0  0  0
    9.3670   -4.1180   -0.2480 C   0  0  0  0  0  3  0  0  0  0  0  0
    9.2380   -2.9790    0.5590 C   0  0  0  0  0  0  0  0  0  0  0  0
    8.3550   -2.9380    1.6340 C   0  0  0  0  0  0  0  0  0  0  0  0
    7.5650   -4.0600    1.9320 C   0  0  0  0  0  3  0  0  0  0  0  0
    8.4020   -1.7170    2.2580 N   0  0  0  0  0  0  0  0  0  0  0  0
    9.3140   -1.0090    1.6200 C   0  0  0  0  0  0  0  0  0  0  0  0
    9.8230   -1.7270    0.5460 N   0  0  0  0  0  0  0  0  0  0  0  0
   10.7380   -1.2110   -0.4690 C   0  0  0  0  0  3  0  0  0  0  0  0
   11.8540   -2.2020   -0.8320 C   0  0  0  0  0  2  0  0  0  0  0  0
   12.8200   -1.5990   -1.8510 C   0  0  0  0  0  2  0  0  0  0  0  0
   12.0890   -1.0870   -3.0890 C   0  0  0  0  0  2  0  0  0  0  0  0
   10.9900   -0.0910   -2.7250 C   0  0  0  0  0  2  0  0  0  0  0  0
   10.0070   -0.6810   -1.7150 C   0  0  0  0  0  2  0  0  0  0  0  0
    7.4220   -7.4650    1.8980 O   0  0  0  0  0  1  0  0  0  0  0  0
    6.8200   -6.4430    1.4420 C   0  0  0  0  0  0  0  0  0  0  0  0
    5.5720   -6.3570    1.2150 O   0  0  0  0  0  0  0  0  0  0  0  0
   10.6190    4.3510    2.7890 O   0  0  0  0  0  0  0  0  0  0  0  0
   11.3720    4.9750    1.7380 C   0  0  0  0  0  2  0  0  0  0  0  0
   10.6650    6.1860    1.1570 C   0  0  0  0  0  0  0  0  0  0  0  0
    9.7240    5.9900    0.1260 C   0  0  0  0  0  3  0  0  0  0  0  0
    9.0540    7.0660   -0.4530 C   0  0  0  0  0  3  0  0  0  0  0  0
    9.3190    8.3590   -0.0210 C   0  0  0  0  0  3  0  0  0  0  0  0
   10.2580    8.5750    0.9870 C   0  0  0  0  0  3  0  0  0  0  0  0
   10.9490    7.5030    1.5860 C   0  0  0  0  0  0  0  0  0  0  0  0
   11.9330    7.8010    2.6330 C   0  0  0  0  0  0  0  0  0  0  0  0
   13.2840    8.0000    2.3120 C   0  0  0  0  0  3  0  0  0  0  0  0
   14.2200    8.2820    3.3100 C   0  0  0  0  0  3  0  0  0  0  0  0
   13.8140    8.3730    4.6400 C   0  0  0  0  0  3  0  0  0  0  0  0
   12.4740    8.1830    4.9740 C   0  0  0  0  0  3  0  0  0  0  0  0
   11.5390    7.9000    3.9760 C   0  0  0  0  0  3  0  0  0  0  0  0
  1  6  1  0  0  0  0
  2  3  1  0  0  0  0
  2  1  2  0  0  0  0
  3  4  2  0  0  0  0
  4 26  1  0  0  0  0
  4  5  1  0  0  0  0
  6  5  2  0  0  0  0
  6  7  1  0  0  0  0
  8 24  1  0  0  0  0
  8 13  1  0  0  0  0
  9  8  2  0  0  0  0
 10  9  1  0  0  0  0
 10 11  2  0  0  0  0
 11 12  1  0  0  0  0
 12 13  2  0  0  0  0
 12 14  1  0  0  0  0
 15  1  1  0  0  0  0
 15 14  2  0  0  0  0
 16 11  1  0  0  0  0
 16 15  1  0  0  0  0
 17 16  1  0  0  0  0
 18 17  1  0  0  0  0
 19 18  1  0  0  0  0
 20 21  1  0  0  0  0
 20 19  1  0  0  0  0
 21 22  1  0  0  0  0
 22 17  1  0  0  0  0
 24 23  1  0  0  0  0
 25 24  2  0  0  0  0
 27 26  1  0  0  0  0
 28 33  1  0  0  0  0
 28 27  1  0  0  0  0
 29 28  2  0  0  0  0
 30 31  2  0  0  0  0
 30 29  1  0  0  0  0
 31 32  1  0  0  0  0
 32 33  2  0  0  0  0
 33 34  1  0  0  0  0
 34 39  1  0  0  0  0
 35 34  2  0  0  0  0
 35 36  1  0  0  0  0
 36 37  2  0  0  0  0
 37 38  1  0  0  0  0
 39 38  2  0  0  0  0
M  END
>  <minimizedAffinity>
-6.50926971

$$$$

 OpenBabel09122218153D

 39 44  0  0  0  0  0  0  0  0999 V2000
   10.8410   -0.5040  -14.1280 C   0  0  0  0  0  0  0  0  0  0  0  0
   11.8870   -0.9270  -14.9550 C   0  0  0  0  0  3  0  0  0  0  0  0
   12.9330   -1.6930  -14.4340 C   0  0  0  0  0  3  0  0  0  0  0  0
   12.9690   -2.0160  -13.0750 C   0  0  0  0  0  0  0  0  0  0  0  0
   11.9360   -1.5930  -12.2430 C   0  0  0  0  0  3  0  0  0  0  0  0
   10.8890   -0.8380  -12.7730 C   0  0  0  0  0  0  0  0  0  0  0  0
    9.9000   -0.4620  -11.9450 F   0  0  0  0  0  0  0  0  0  0  0  0
    6.9300    3.4080  -16.4280 C   0  0  0  0  0  0  0  0  0  0  0  0
    6.1080    2.2790  -16.5730 C   0  0  0  0  0  3  0  0  0  0  0  0
    6.5200    0.9980  -16.1810 C   0  0  0  0  0  3  0  0  0  0  0  0
    7.8010    0.8710  -15.6260 C   0  0  0  0  0  0  0  0  0  0  0  0
    8.6430    1.9680  -15.4660 C   0  0  0  0  0  0  0  0  0  0  0  0
    8.2110    3.2430  -15.8660 C   0  0  0  0  0  3  0  0  0  0  0  0
    9.8400    1.5870  -14.9150 N   0  0  0  0  0  0  0  0  0  0  0  0
    9.7530    0.2890  -14.6980 C   0  0  0  0  0  0  0  0  0  0  0  0
    8.5370   -0.2000  -15.1570 N   0  0  0  0  0  0  0  0  0  0  0  0
    8.1520   -1.6070  -15.2200 C   0  0  0  0  0  3  0  0  0  0  0  0
    7.1350   -2.0020  -14.1370 C   0  0  0  0  0  2  0  0  0  0  0  0
    6.8070   -3.4930  -14.2030 C   0  0  0  0  0  2  0  0  0  0  0  0
    6.3450   -3.9090  -15.5970 C   0  0  0  0  0  2  0  0  0  0  0  0
    7.3650   -3.5290  -16.6670 C   0  0  0  0  0  2  0  0  0  0  0  0
    7.6970   -2.0380  -16.6250 C   0  0  0  0  0  2  0  0  0  0  0  0
    7.3390    5.6420  -17.1390 O   0  0  0  0  0  0  0  0  0  0  0  0
    6.4480    4.7750  -16.8720 C   0  0  0  0  0  0  0  0  0  0  0  0
    5.1910    4.9570  -16.9420 O   0  0  0  0  0  1  0  0  0  0  0  0
   14.0240   -2.7950  -12.6870 O   0  0  0  0  0  0  0  0  0  0  0  0
   13.8390   -4.2170  -12.7590 C   0  0  0  0  0  2  0  0  0  0  0  0
   12.9360   -4.7430  -11.6590 C   0  0  0  0  0  0  0  0  0  0  0  0
   13.3410   -4.5890  -10.3190 C   0  0  0  0  0  3  0  0  0  0  0  0
   12.5580   -5.0620   -9.2690 C   0  0  0  0  0  3  0  0  0  0  0  0
   11.3580   -5.7090   -9.5380 C   0  0  0  0  0  3  0  0  0  0  0  0
   10.9470   -5.8850  -10.8590 C   0  0  0  0  0  3  0  0  0  0  0  0
   11.7240   -5.4160  -11.9370 C   0  0  0  0  0  0  0  0  0  0  0  0
   11.2380   -5.6450  -13.3030 C   0  0  0  0  0  0  0  0  0  0  0  0
   10.5230   -4.6490  -13.9860 C   0  0  0  0  0  3  0  0  0  0  0  0
   10.0600   -4.8680  -15.2850 C   0  0  0  0  0  3  0  0  0  0  0  0
   10.3110   -6.0850  -15.9180 C   0  0  0  0  0  3  0  0  0  0  0  0
   11.0240   -7.0820  -15.2540 C   0  0  0  0  0  3  0  0  0  0  0  0
   11.4870   -6.8610  -13.9550 C   0  0  0  0  0  3  0  0  0  0  0  0
  1  6  1  0  0  0  0
  2  3  1  0  0  0  0
  2  1  2  0  0  0  0
  3  4  2  0  0  0  0
  4 26  1  0  0  0  0
  4  5  1  0  0  0  0
  6  5  2  0  0  0  0
  6  7  1  0  0  0  0
  8 13  1  0  0  0  0
  9  8  2  0  0  0  0
  9 10  1  0  0  0  0
 10 11  2  0  0  0  0
 11 12  1  0  0  0  0
 11 16  1  0  0  0  0
 12 14  1  0  0  0  0
 13 12  2  0  0  0  0
 14 15  2  0  0  0  0
 15  1  1  0  0  0  0
 16 15  1  0  0  0  0
 17 16  1  0  0  0  0
 17 18  1  0  0  0  0
 19 18  1  0  0  0  0
 20 19  1  0  0  0  0
 21 22  1  0  0  0  0
 21 20  1  0  0  0  0
 22 17  1  0  0  0  0
 23 24  2  0  0  0  0
 24  8  1  0  0  0  0
 25 24  1  0  0  0  0
 27 26  1  0  0  0  0
 27 28  1  0  0  0  0
 28 29  1  0  0  0  0
 29 30  2  0  0  0  0
 31 30  1  0  0  0  0
 32 31  2  0  0  0  0
 33 28  2  0  0  0  0
 33 32  1  0  0  0  0
 34 33  1  0  0  0  0
 35 34  2  0  0  0  0
 36 35  1  0  0  0  0
 37 36  2  0  0  0  0
 37 38  1  0  0  0  0
 38 39  2  0  0  0  0
 39 34  1  0  0  0  0
M  END
>  <minimizedAffinity>
-6.49926233

$$$$

 OpenBabel09122218153D

 39 44  0  0  0  0  0  0  0  0999 V2000
    9.7970    0.7700    1.7560 C   0  0  0  0  0  0  0  0  0  0  0  0
    9.8880    1.6740    0.6910 C   0  0  0  0  0  3  0  0  0  0  0  0
   10.2470    3.0040    0.9220 C   0  0  0  0  0  3  0  0  0  0  0  0
   10.4830    3.4610    2.2210 C   0  0  0  0  0  0  0  0  0  0  0  0
   10.3880    2.5710    3.2880 C   0  0  0  0  0  3  0  0  0  0  0  0
   10.0410    1.2410    3.0480 C   0  0  0  0  0  0  0  0  0  0  0  0
    9.9760    0.4070    4.0980 F   0  0  0  0  0  0  0  0  0  0  0  0
    7.7050   -4.8230    1.2780 C   0  0  0  0  0  0  0  0  0  0  0  0
    8.5950   -4.9070    0.1960 C   0  0  0  0  0  3  0  0  0  0  0  0
    9.4060   -3.8330   -0.1920 C   0  0  0  0  0  3  0  0  0  0  0  0
    9.3060   -2.6460    0.5460 C   0  0  0  0  0  0  0  0  0  0  0  0
    8.4370   -2.5250    1.6270 C   0  0  0  0  0  0  0  0  0  0  0  0
    7.6310   -3.6140    1.9990 C   0  0  0  0  0  3  0  0  0  0  0  0
    8.5130   -1.2710    2.1760 N   0  0  0  0  0  0  0  0  0  0  0  0
    9.4290   -0.6180    1.4880 C   0  0  0  0  0  0  0  0  0  0  0  0
    9.9120   -1.4080    0.4530 N   0  0  0  0  0  0  0  0  0  0  0  0
   10.8240   -0.9700   -0.6010 C   0  0  0  0  0  3  0  0  0  0  0  0
   11.9430   -1.9830   -0.8890 C   0  0  0  0  0  2  0  0  0  0  0  0
   12.9050   -1.4580   -1.9540 C   0  0  0  0  0  2  0  0  0  0  0  0
   12.1690   -1.0460   -3.2260 C   0  0  0  0  0  2  0  0  0  0  0  0
   11.0690   -0.0280   -2.9380 C   0  0  0  0  0  2  0  0  0  0  0  0
   10.0890   -0.5400   -1.8830 C   0  0  0  0  0  2  0  0  0  0  0  0
    6.0360   -5.8440    2.6320 O   0  0  0  0  0  1  0  0  0  0  0  0
    6.8400   -6.0070    1.6610 C   0  0  0  0  0  0  0  0  0  0  0  0
    6.9820   -7.0760    0.9860 O   0  0  0  0  0  0  0  0  0  0  0  0
   10.8550    4.7730    2.3200 O   0  0  0  0  0  0  0  0  0  0  0  0
   10.9800    5.5050    1.0910 C   0  0  0  0  0  2  0  0  0  0  0  0
   10.6230    6.9720    1.2480 C   0  0  0  0  0  0  0  0  0  0  0  0
    9.5170    7.3160    2.0500 C   0  0  0  0  0  3  0  0  0  0  0  0
    9.1350    8.6450    2.2200 C   0  0  0  0  0  3  0  0  0  0  0  0
    9.8450    9.6560    1.5840 C   0  0  0  0  0  3  0  0  0  0  0  0
   10.9340    9.3330    0.7740 C   0  0  0  0  0  3  0  0  0  0  0  0
   11.3370    7.9960    0.5860 C   0  0  0  0  0  0  0  0  0  0  0  0
   12.4840    7.7260   -0.2890 C   0  0  0  0  0  0  0  0  0  0  0  0
   13.7960    7.9350    0.1640 C   0  0  0  0  0  3  0  0  0  0  0  0
   14.8860    7.6790   -0.6710 C   0  0  0  0  0  3  0  0  0  0  0  0
   14.6780    7.2070   -1.9660 C   0  0  0  0  0  3  0  0  0  0  0  0
   13.3800    6.9910   -2.4280 C   0  0  0  0  0  3  0  0  0  0  0  0
   12.2900    7.2470   -1.5930 C   0  0  0  0  0  3  0  0  0  0  0  0
  1  6  1  0  0  0  0
  2  3  1  0  0  0  0
  2  1  2  0  0  0  0
  3  4  2  0  0  0  0
  4 26  1  0  0  0  0
  4  5  1  0  0  0  0
  6  5  2  0  0  0  0
  6  7  1  0  0  0  0
  8 24  1  0  0  0  0
  8 13  1  0  0  0  0
  9  8  2  0  0  0  0
 10  9  1  0  0  0  0
 10 11  2  0  0  0  0
 11 12  1  0  0  0  0
 12 13  2  0  0  0  0
 12 14  1  0  0  0  0
 15  1  1  0  0  0  0
 15 14  2  0  0  0  0
 16 11  1  0  0  0  0
 16 15  1  0  0  0  0
 17 16  1  0  0  0  0
 18 17  1  0  0  0  0
 19 18  1  0  0  0  0
 20 21  1  0  0  0  0
 20 19  1  0  0  0  0
 21 22  1  0  0  0  0
 22 17  1  0  0  0  0
 24 23  1  0  0  0  0
 25 24  2  0  0  0  0
 27 28  1  0  0  0  0
 27 26  1  0  0  0  0
 28 29  1  0  0  0  0
 29 30  2  0  0  0  0
 31 30  1  0  0  0  0
 32 31  2  0  0  0  0
 33 32  1  0  0  0  0
 33 28  2  0  0  0  0
 34 35  1  0  0  0  0
 34 33  1  0  0  0  0
 36 35  2  0  0  0  0
 37 36  1  0  0  0  0
 38 37  2  0  0  0  0
 38 39  1  0  0  0  0
 39 34  2  0  0  0  0
M  END
>  <minimizedAffinity>
-6.47927952

$$$$

 OpenBabel09122218153D

 39 44  0  0  0  0  0  0  0  0999 V2000
    9.5530   -0.0540    2.4810 C   0  0  0  0  0  0  0  0  0  0  0  0
    9.4310    1.0570    1.6400 C   0  0  0  0  0  3  0  0  0  0  0  0
    9.7850    2.3300    2.0950 C   0  0  0  0  0  3  0  0  0  0  0  0
   10.2270    2.5180    3.4060 C   0  0  0  0  0  0  0  0  0  0  0  0
   10.3440    1.4190    4.2540 C   0  0  0  0  0  3  0  0  0  0  0  0
   10.0010    0.1490    3.7890 C   0  0  0  0  0  0  0  0  0  0  0  0
   10.1430   -0.8890    4.6270 F   0  0  0  0  0  0  0  0  0  0  0  0
    7.4770   -5.4910    1.0630 C   0  0  0  0  0  0  0  0  0  0  0  0
    8.3460   -5.3770   -0.0330 C   0  0  0  0  0  3  0  0  0  0  0  0
    9.1450   -4.2450   -0.2390 C   0  0  0  0  0  3  0  0  0  0  0  0
    9.0540   -3.2080    0.6980 C   0  0  0  0  0  0  0  0  0  0  0  0
    8.2050   -3.2860    1.7980 C   0  0  0  0  0  0  0  0  0  0  0  0
    7.4110   -4.4290    1.9870 C   0  0  0  0  0  3  0  0  0  0  0  0
    8.2850   -2.1470    2.5580 N   0  0  0  0  0  0  0  0  0  0  0  0
    9.1860   -1.3760    1.9800 C   0  0  0  0  0  0  0  0  0  0  0  0
    9.6530   -1.9680    0.8130 N   0  0  0  0  0  0  0  0  0  0  0  0
   10.5430   -1.3440   -0.1630 C   0  0  0  0  0  3  0  0  0  0  0  0
   11.5860   -2.3170   -0.7340 C   0  0  0  0  0  2  0  0  0  0  0  0
   12.5310   -1.6090   -1.7040 C   0  0  0  0  0  2  0  0  0  0  0  0
   11.7670   -0.8810   -2.8070 C   0  0  0  0  0  2  0  0  0  0  0  0
   10.7430    0.0960   -2.2350 C   0  0  0  0  0  2  0  0  0  0  0  0
    9.7810   -0.5970   -1.2710 C   0  0  0  0  0  2  0  0  0  0  0  0
    6.4810   -7.1630    2.4340 O   0  0  0  0  0  1  0  0  0  0  0  0
    6.6240   -6.7310    1.2460 C   0  0  0  0  0  0  0  0  0  0  0  0
    6.1160   -7.2500    0.2020 O   0  0  0  0  0  0  0  0  0  0  0  0
   10.5720    3.8020    3.7290 O   0  0  0  0  0  0  0  0  0  0  0  0
   10.8770    4.6830    2.6360 C   0  0  0  0  0  2  0  0  0  0  0  0
   12.0520    5.5950    2.9360 C   0  0  0  0  0  0  0  0  0  0  0  0
   12.9960    5.1890    3.9000 C   0  0  0  0  0  3  0  0  0  0  0  0
   14.0880    5.9910    4.2240 C   0  0  0  0  0  3  0  0  0  0  0  0
   14.2530    7.2200    3.5980 C   0  0  0  0  0  3  0  0  0  0  0  0
   13.3210    7.6470    2.6520 C   0  0  0  0  0  3  0  0  0  0  0  0
   12.2090    6.8530    2.3100 C   0  0  0  0  0  0  0  0  0  0  0  0
   11.2610    7.3670    1.3150 C   0  0  0  0  0  0  0  0  0  0  0  0
   11.4100    7.0570   -0.0460 C   0  0  0  0  0  3  0  0  0  0  0  0
   10.5080    7.5480   -0.9920 C   0  0  0  0  0  3  0  0  0  0  0  0
    9.4430    8.3520   -0.5880 C   0  0  0  0  0  3  0  0  0  0  0  0
    9.2790    8.6650    0.7610 C   0  0  0  0  0  3  0  0  0  0  0  0
   10.1810    8.1730    1.7060 C   0  0  0  0  0  3  0  0  0  0  0  0
  1  6  1  0  0  0  0
  2  3  1  0  0  0  0
  2  1  2  0  0  0  0
  3  4  2  0  0  0  0
  4 26  1  0  0  0  0
  4  5  1  0  0  0  0
  6  5  2  0  0  0  0
  6  7  1  0  0  0  0
  8 24  1  0  0  0  0
  8 13  1  0  0  0  0
  9  8  2  0  0  0  0
 10  9  1  0  0  0  0
 10 11  2  0  0  0  0
 11 16  1  0  0  0  0
 11 12  1  0  0  0  0
 12 13  2  0  0  0  0
 12 14  1  0  0  0  0
 15  1  1  0  0  0  0
 15 14  2  0  0  0  0
 16 15  1  0  0  0  0
 17 16  1  0  0  0  0
 18 17  1  0  0  0  0
 19 18  1  0  0  0  0
 20 21  1  0  0  0  0
 20 19  1  0  0  0  0
 21 22  1  0  0  0  0
 22 17  1  0  0  0  0
 24 23  1  0  0  0  0
 25 24  2  0  0  0  0
 27 28  1  0  0  0  0
 27 26  1  0  0  0  0
 28 29  1  0  0  0  0
 29 30  2  0  0  0  0
 31 30  1  0  0  0  0
 32 31  2  0  0  0  0
 33 32  1  0  0  0  0
 33 28  2  0  0  0  0
 34 39  1  0  0  0  0
 34 33  1  0  0  0  0
 35 34  2  0  0  0  0
 36 37  2  0  0  0  0
 36 35  1  0  0  0  0
 37 38  1  0  0  0  0
 38 39  2  0  0  0  0
M  END
>  <minimizedAffinity>
-6.45742321

$$$$

 OpenBabel09122218153D

 39 44  0  0  0  0  0  0  0  0999 V2000
    9.4970   -0.1330    2.0420 C   0  0  0  0  0  0  0  0  0  0  0  0
    9.1510   -0.9540    0.9630 C   0  0  0  0  0  3  0  0  0  0  0  0
    8.8130   -2.2930    1.1750 C   0  0  0  0  0  3  0  0  0  0  0  0
    8.8520   -2.8410    2.4590 C   0  0  0  0  0  0  0  0  0  0  0  0
    9.2030   -2.0340    3.5390 C   0  0  0  0  0  3  0  0  0  0  0  0
    9.5280   -0.6940    3.3210 C   0  0  0  0  0  0  0  0  0  0  0  0
    9.8440    0.0590    4.3850 F   0  0  0  0  0  0  0  0  0  0  0  0
   10.6290    5.7460    1.8380 C   0  0  0  0  0  0  0  0  0  0  0  0
   11.1560    5.4530    0.5710 C   0  0  0  0  0  3  0  0  0  0  0  0
   11.1670    4.1530    0.0480 C   0  0  0  0  0  3  0  0  0  0  0  0
   10.6240    3.1320    0.8380 C   0  0  0  0  0  0  0  0  0  0  0  0
   10.0910    3.3850    2.0990 C   0  0  0  0  0  0  0  0  0  0  0  0
   10.0900    4.6950    2.6060 C   0  0  0  0  0  3  0  0  0  0  0  0
    9.6340    2.2280    2.6760 N   0  0  0  0  0  0  0  0  0  0  0  0
    9.8380    1.2670    1.7960 C   0  0  0  0  0  0  0  0  0  0  0  0
   10.4810    1.7670    0.6720 N   0  0  0  0  0  0  0  0  0  0  0  0
   10.9990    0.9740   -0.4400 C   0  0  0  0  0  3  0  0  0  0  0  0
    9.9500    0.7120   -1.5320 C   0  0  0  0  0  2  0  0  0  0  0  0
   10.5170   -0.1700   -2.6440 C   0  0  0  0  0  2  0  0  0  0  0  0
   11.8070    0.4060   -3.2200 C   0  0  0  0  0  2  0  0  0  0  0  0
   12.8520    0.6500   -2.1330 C   0  0  0  0  0  2  0  0  0  0  0  0
   12.3070    1.5410   -1.0180 C   0  0  0  0  0  2  0  0  0  0  0  0
   11.5700    7.9300    1.9510 O   0  0  0  0  0  0  0  0  0  0  0  0
   10.6440    7.1660    2.3710 C   0  0  0  0  0  0  0  0  0  0  0  0
    9.7330    7.4890    3.1970 O   0  0  0  0  0  1  0  0  0  0  0  0
    8.4720   -4.1520    2.5470 O   0  0  0  0  0  0  0  0  0  0  0  0
    7.0660   -4.4100    2.6880 C   0  0  0  0  0  2  0  0  0  0  0  0
    6.5000   -5.2000    1.5230 C   0  0  0  0  0  0  0  0  0  0  0  0
    7.2710   -5.3200    0.3490 C   0  0  0  0  0  3  0  0  0  0  0  0
    6.7970   -6.0230   -0.7560 C   0  0  0  0  0  3  0  0  0  0  0  0
    5.5390   -6.6110   -0.7140 C   0  0  0  0  0  3  0  0  0  0  0  0
    4.7550   -6.4890    0.4320 C   0  0  0  0  0  3  0  0  0  0  0  0
    5.2130   -5.7820    1.5610 C   0  0  0  0  0  0  0  0  0  0  0  0
    4.3320   -5.6830    2.7310 C   0  0  0  0  0  0  0  0  0  0  0  0
    3.9720   -6.8290    3.4570 C   0  0  0  0  0  3  0  0  0  0  0  0
    3.1330   -6.7340    4.5690 C   0  0  0  0  0  3  0  0  0  0  0  0
    2.6470   -5.4910    4.9710 C   0  0  0  0  0  3  0  0  0  0  0  0
    3.0010   -4.3430    4.2630 C   0  0  0  0  0  3  0  0  0  0  0  0
    3.8400   -4.4390    3.1510 C   0  0  0  0  0  3  0  0  0  0  0  0
  1  6  1  0  0  0  0
  2  3  1  0  0  0  0
  2  1  2  0  0  0  0
  3  4  2  0  0  0  0
  4 26  1  0  0  0  0
  4  5  1  0  0  0  0
  6  5  2  0  0  0  0
  6  7  1  0  0  0  0
  8 24  1  0  0  0  0
  8 13  1  0  0  0  0
  9  8  2  0  0  0  0
 10  9  1  0  0  0  0
 10 11  2  0  0  0  0
 11 12  1  0  0  0  0
 12 13  2  0  0  0  0
 12 14  1  0  0  0  0
 15  1  1  0  0  0  0
 15 14  2  0  0  0  0
 16 11  1  0  0  0  0
 16 15  1  0  0  0  0
 17 16  1  0  0  0  0
 18 17  1  0  0  0  0
 19 18  1  0  0  0  0
 20 19  1  0  0  0  0
 20 21  1  0  0  0  0
 21 22  1  0  0  0  0
 22 17  1  0  0  0  0
 23 24  2  0  0  0  0
 24 25  1  0  0  0  0
 26 27  1  0  0  0  0
 28 33  1  0  0  0  0
 28 27  1  0  0  0  0
 29 28  2  0  0  0  0
 30 31  2  0  0  0  0
 30 29  1  0  0  0  0
 31 32  1  0  0  0  0
 32 33  2  0  0  0  0
 33 34  1  0  0  0  0
 34 39  2  0  0  0  0
 34 35  1  0  0  0  0
 35 36  2  0  0  0  0
 36 37  1  0  0  0  0
 38 37  2  0  0  0  0
 39 38  1  0  0  0  0
M  END
>  <minimizedAffinity>
-6.44336176

$$$$
