
 OpenBabel09132204463D

 32 36  0  0  1  0  0  0  0  0999 V2000
    9.2410    1.2060    3.2530 O   0  0  0  0  0  0  0  0  0  0  0  0
    9.5460    0.4670    2.3090 C   0  0  0  0  0  0  0  0  0  0  0  0
    9.6780   -0.9960    2.5890 C   0  0  0  0  0  0  0  0  0  0  0  0
   10.0360   -1.8160    1.5850 C   0  0  0  0  0  0  0  0  0  0  0  0
   10.2330   -1.3220    0.2090 C   0  0  0  0  0  0  0  0  0  0  0  0
   10.4750   -2.1970   -0.8690 C   0  0  0  0  0  3  0  0  0  0  0  0
   10.6990   -1.7110   -2.1560 C   0  0  0  0  0  3  0  0  0  0  0  0
   10.6750   -0.3440   -2.3880 C   0  0  0  0  0  3  0  0  0  0  0  0
   10.3960    0.5340   -1.3410 C   0  0  0  0  0  3  0  0  0  0  0  0
   10.1510    0.0610   -0.0400 C   0  0  0  0  0  0  0  0  0  0  0  0
    9.7930    0.9380    1.0290 N   0  0  0  0  0  0  0  0  0  0  0  0
    9.4190   -1.4560    4.0090 C   0  0  1  0  0  3  0  0  0  0  0  0
   10.2750   -1.1800    4.9610 N   0  0  0  0  0  0  0  0  0  0  0  0
   10.1550   -1.5950    6.5050 S   0  0  0  0  0  0  0  0  0  0  0  0
   11.1920   -2.5590    6.8210 O   0  0  0  0  0  0  0  0  0  0  0  0
   10.0250   -0.3970    7.3100 O   0  0  0  0  0  0  0  0  0  0  0  0
    8.6320   -2.4600    6.6860 C   0  0  0  0  0  0  0  0  0  0  0  0
    8.2520   -2.9280    7.9490 C   0  0  0  0  0  3  0  0  0  0  0  0
    7.0460   -3.6110    8.0840 C   0  0  0  0  0  3  0  0  0  0  0  0
    6.2400   -3.8180    6.9650 C   0  0  0  0  0  3  0  0  0  0  0  0
    6.6370   -3.3410    5.7110 C   0  0  0  0  0  3  0  0  0  0  0  0
    7.8430   -2.6530    5.5590 C   0  0  0  0  0  0  0  0  0  0  0  0
    8.2430   -2.1770    4.3180 N   0  0  0  0  0  0  0  0  0  0  0  0
   11.1060   -0.6540    4.7090 H   0  0  0  0  0  0  0  0  0  0  0  0
    7.6230   -2.3350    3.5210 H   0  0  0  0  0  0  0  0  0  0  0  0
   10.2770   -3.1620    1.8250 O   0  0  0  0  0  0  0  0  0  0  0  0
   10.9740   -3.4640    1.2120 H   0  0  0  0  0  0  0  0  0  0  0  0
    9.6710    2.3850    0.8080 C   0  0  0  0  0  2  0  0  0  0  0  0
   10.9980    3.1150    1.0430 C   0  0  0  0  0  2  0  0  0  0  0  0
   10.9280    4.6140    1.1250 C   0  0  0  0  0  3  0  0  0  0  0  0
   11.3440    5.5490    0.0170 C   0  0  0  0  0  2  0  0  0  0  0  0
    9.8880    5.3870    0.3560 C   0  0  0  0  0  2  0  0  0  0  0  0
  2  3  1  0  0  0  0
  2  1  2  0  0  0  0
  4 26  1  0  0  0  0
  4  3  2  0  0  0  0
  5  4  1  0  0  0  0
  6  5  2  0  0  0  0
  7  6  1  0  0  0  0
  8  7  2  0  0  0  0
  8  9  1  0  0  0  0
  9 10  2  0  0  0  0
 10  5  1  0  0  0  0
 10 11  1  0  0  0  0
 11  2  1  0  0  0  0
 12  3  1  1  0  0  0
 12 23  1  0  0  0  0
 12 13  1  0  0  0  0
 13 14  1  0  0  0  0
 14 17  1  0  0  0  0
 14 15  2  0  0  0  0
 14 16  2  0  0  0  0
 17 18  1  0  0  0  0
 18 19  2  0  0  0  0
 20 19  1  0  0  0  0
 21 20  2  0  0  0  0
 22 21  1  0  0  0  0
 22 17  2  0  0  0  0
 23 22  1  0  0  0  0
 24 13  1  0  0  0  0
 25 23  1  0  0  0  0
 27 26  1  0  0  0  0
 28 11  1  0  0  0  0
 28 29  1  0  0  0  0
 29 30  1  0  0  0  0
 31 32  1  0  0  0  0
 31 30  1  0  0  0  0
 32 30  1  0  0  0  0
M  END
>  <minimizedAffinity>
-6.55408907

$$$$
