
 OpenBabel09132204463D

 32 36  0  0  1  0  0  0  0  0999 V2000
    9.1980    0.7570    1.6550 O   0  0  0  0  0  0  0  0  0  0  0  0
    9.6100    0.5810    2.8070 C   0  0  0  0  0  0  0  0  0  0  0  0
   10.2510    1.7420    3.5000 C   0  0  0  0  0  0  0  0  0  0  0  0
   10.7320    1.5670    4.7430 C   0  0  0  0  0  0  0  0  0  0  0  0
   10.5810    0.2890    5.4640 C   0  0  0  0  0  0  0  0  0  0  0  0
   10.9620    0.1450    6.8130 C   0  0  0  0  0  3  0  0  0  0  0  0
   10.8500   -1.0810    7.4670 C   0  0  0  0  0  3  0  0  0  0  0  0
   10.3470   -2.1790    6.7870 C   0  0  0  0  0  3  0  0  0  0  0  0
    9.9270   -2.0450    5.4640 C   0  0  0  0  0  3  0  0  0  0  0  0
   10.0160   -0.8120    4.7930 C   0  0  0  0  0  0  0  0  0  0  0  0
    9.5250   -0.6370    3.4630 N   0  0  0  0  0  0  0  0  0  0  0  0
   10.3380    3.0440    2.7310 C   0  0  1  0  0  3  0  0  0  0  0  0
   10.2090    3.0540    1.4270 N   0  0  0  0  0  0  0  0  0  0  0  0
   10.2810    4.3370    0.4690 S   0  0  0  0  0  0  0  0  0  0  0  0
   11.4690    4.2480   -0.3570 O   0  0  0  0  0  0  0  0  0  0  0  0
    8.9880    4.5350   -0.1580 O   0  0  0  0  0  0  0  0  0  0  0  0
   10.5270    5.7390    1.5060 C   0  0  0  0  0  0  0  0  0  0  0  0
   10.6080    7.0130    0.9340 C   0  0  0  0  0  3  0  0  0  0  0  0
   10.8030    8.1160    1.7610 C   0  0  0  0  0  3  0  0  0  0  0  0
   10.9150    7.9350    3.1400 C   0  0  0  0  0  3  0  0  0  0  0  0
   10.8300    6.6530    3.6930 C   0  0  0  0  0  3  0  0  0  0  0  0
   10.6330    5.5370    2.8760 C   0  0  0  0  0  0  0  0  0  0  0  0
   10.5480    4.2610    3.4180 N   0  0  0  0  0  0  0  0  0  0  0  0
   10.0520    2.1650    0.9630 H   0  0  0  0  0  0  0  0  0  0  0  0
   10.6220    4.1650    4.4330 H   0  0  0  0  0  0  0  0  0  0  0  0
   11.4330    2.5840    5.3780 O   0  0  0  0  0  0  0  0  0  0  0  0
   12.1070    2.1780    5.9550 H   0  0  0  0  0  0  0  0  0  0  0  0
    8.9050   -1.7530    2.7360 C   0  0  0  0  0  2  0  0  0  0  0  0
    9.9250   -2.5260    1.8950 C   0  0  0  0  0  2  0  0  0  0  0  0
    9.6080   -2.6760    0.4330 C   0  0  0  0  0  3  0  0  0  0  0  0
   10.4880   -3.3910   -0.5620 C   0  0  0  0  0  2  0  0  0  0  0  0
    9.1810   -4.0050   -0.1370 C   0  0  0  0  0  2  0  0  0  0  0  0
  1  2  2  0  0  0  0
  2 11  1  0  0  0  0
  2  3  1  0  0  0  0
  3  4  2  0  0  0  0
  4 26  1  0  0  0  0
  4  5  1  0  0  0  0
  5  6  1  0  0  0  0
  6  7  2  0  0  0  0
  8  7  1  0  0  0  0
  9  8  2  0  0  0  0
 10  5  2  0  0  0  0
 10  9  1  0  0  0  0
 11 10  1  0  0  0  0
 12 23  1  0  0  0  0
 12  3  1  1  0  0  0
 13 12  1  0  0  0  0
 14 13  1  0  0  0  0
 14 17  1  0  0  0  0
 15 14  2  0  0  0  0
 16 14  2  0  0  0  0
 17 22  1  0  0  0  0
 18 17  2  0  0  0  0
 18 19  1  0  0  0  0
 19 20  2  0  0  0  0
 20 21  1  0  0  0  0
 22 23  1  0  0  0  0
 22 21  2  0  0  0  0
 23 25  1  0  0  0  0
 24 13  1  0  0  0  0
 26 27  1  0  0  0  0
 28 11  1  0  0  0  0
 29 28  1  0  0  0  0
 30 29  1  0  0  0  0
 31 32  1  0  0  0  0
 31 30  1  0  0  0  0
 32 30  1  0  0  0  0
M  END
>  <minimizedAffinity>
-6.43652678

$$$$
