
 OpenBabel09132204463D

 32 36  0  0  1  0  0  0  0  0999 V2000
    8.9270    1.2530    2.4930 O   0  0  0  0  0  0  0  0  0  0  0  0
    9.4930    0.6980    1.5450 C   0  0  0  0  0  0  0  0  0  0  0  0
   10.2810    1.5580    0.6080 C   0  0  0  0  0  0  0  0  0  0  0  0
   10.8820    0.9810   -0.4480 C   0  0  0  0  0  0  0  0  0  0  0  0
   10.8430   -0.4780   -0.6650 C   0  0  0  0  0  0  0  0  0  0  0  0
   11.5830   -1.0980   -1.6910 C   0  0  0  0  0  3  0  0  0  0  0  0
   11.5030   -2.4730   -1.9090 C   0  0  0  0  0  3  0  0  0  0  0  0
   10.6900   -3.2500   -1.0970 C   0  0  0  0  0  3  0  0  0  0  0  0
    9.9820   -2.6590   -0.0510 C   0  0  0  0  0  3  0  0  0  0  0  0
   10.0640   -1.2770    0.1940 C   0  0  0  0  0  0  0  0  0  0  0  0
    9.4050   -0.6640    1.3030 N   0  0  0  0  0  0  0  0  0  0  0  0
   10.3270    3.0430    0.9040 C   0  0  1  0  0  3  0  0  0  0  0  0
   10.1060    3.9150   -0.0480 N   0  0  0  0  0  0  0  0  0  0  0  0
   10.1230    5.5120    0.0960 S   0  0  0  0  0  0  0  0  0  0  0  0
   11.2480    6.0440   -0.6470 O   0  0  0  0  0  0  0  0  0  0  0  0
    8.7910    6.0260   -0.1580 O   0  0  0  0  0  0  0  0  0  0  0  0
   10.4570    5.8710    1.7870 C   0  0  0  0  0  0  0  0  0  0  0  0
   10.5110    7.2030    2.2110 C   0  0  0  0  0  3  0  0  0  0  0  0
   10.7770    7.4790    3.5490 C   0  0  0  0  0  3  0  0  0  0  0  0
   10.9850    6.4290    4.4430 C   0  0  0  0  0  3  0  0  0  0  0  0
   10.9260    5.1030    4.0010 C   0  0  0  0  0  3  0  0  0  0  0  0
   10.6590    4.8100    2.6610 C   0  0  0  0  0  0  0  0  0  0  0  0
   10.5990    3.4960    2.2150 N   0  0  0  0  0  0  0  0  0  0  0  0
    9.9060    3.5580   -0.9760 H   0  0  0  0  0  0  0  0  0  0  0  0
   10.7440    2.7510    2.8980 H   0  0  0  0  0  0  0  0  0  0  0  0
   11.5300    1.7550   -1.4010 O   0  0  0  0  0  0  0  0  0  0  0  0
   11.4380    1.3160   -2.2670 H   0  0  0  0  0  0  0  0  0  0  0  0
    8.6030   -1.4640    2.2390 C   0  0  0  0  0  2  0  0  0  0  0  0
    9.4790   -2.2140    3.2480 C   0  0  0  0  0  2  0  0  0  0  0  0
    9.3570   -1.7860    4.6830 C   0  0  0  0  0  3  0  0  0  0  0  0
   10.4510   -1.9270    5.7120 C   0  0  0  0  0  2  0  0  0  0  0  0
   10.0790   -0.5650    5.1940 C   0  0  0  0  0  2  0  0  0  0  0  0
  2  1  2  0  0  0  0
  3  2  1  0  0  0  0
  4  3  2  0  0  0  0
  5  4  1  0  0  0  0
  5 10  1  0  0  0  0
  6  5  2  0  0  0  0
  7  6  1  0  0  0  0
  7  8  2  0  0  0  0
  8  9  1  0  0  0  0
  9 10  2  0  0  0  0
 10 11  1  0  0  0  0
 11  2  1  0  0  0  0
 11 28  1  0  0  0  0
 12  3  1  1  0  0  0
 12 23  1  0  0  0  0
 13 14  1  0  0  0  0
 13 12  1  0  0  0  0
 14 17  1  0  0  0  0
 15 14  2  0  0  0  0
 16 14  2  0  0  0  0
 17 18  2  0  0  0  0
 17 22  1  0  0  0  0
 18 19  1  0  0  0  0
 19 20  2  0  0  0  0
 21 20  1  0  0  0  0
 22 21  2  0  0  0  0
 23 22  1  0  0  0  0
 23 25  1  0  0  0  0
 24 13  1  0  0  0  0
 26  4  1  0  0  0  0
 27 26  1  0  0  0  0
 28 29  1  0  0  0  0
 29 30  1  0  0  0  0
 30 32  1  0  0  0  0
 30 31  1  0  0  0  0
 32 31  1  0  0  0  0
M  END
>  <minimizedAffinity>
-6.78759003

$$$$
