
 OpenBabel09132204463D

 32 36  0  0  1  0  0  0  0  0999 V2000
    9.4240    2.0510    1.3110 O   0  0  0  0  0  0  0  0  0  0  0  0
    9.7610    1.5910    2.4080 C   0  0  0  0  0  0  0  0  0  0  0  0
   10.5060    2.4930    3.3400 C   0  0  0  0  0  0  0  0  0  0  0  0
   10.9080    2.0070    4.5270 C   0  0  0  0  0  0  0  0  0  0  0  0
   10.5730    0.6370    4.9610 C   0  0  0  0  0  0  0  0  0  0  0  0
   10.8760    0.1720    6.2560 C   0  0  0  0  0  3  0  0  0  0  0  0
   10.5900   -1.1390    6.6360 C   0  0  0  0  0  3  0  0  0  0  0  0
    9.9890   -2.0010    5.7310 C   0  0  0  0  0  3  0  0  0  0  0  0
    9.6460   -1.5450    4.4590 C   0  0  0  0  0  3  0  0  0  0  0  0
    9.9110   -0.2220    4.0630 C   0  0  0  0  0  0  0  0  0  0  0  0
    9.5030    0.2840    2.7920 N   0  0  0  0  0  0  0  0  0  0  0  0
   10.7810    3.9050    2.8630 C   0  0  1  0  0  3  0  0  0  0  0  0
   10.6400    4.9200    3.6810 N   0  0  0  0  0  0  0  0  0  0  0  0
   10.8840    6.4660    3.3360 S   0  0  0  0  0  0  0  0  0  0  0  0
    9.6150    7.1680    3.3750 O   0  0  0  0  0  0  0  0  0  0  0  0
   11.9970    6.9580    4.1230 O   0  0  0  0  0  0  0  0  0  0  0  0
   11.4160    6.5400    1.6590 C   0  0  0  0  0  0  0  0  0  0  0  0
   11.7250    7.7790    1.0880 C   0  0  0  0  0  3  0  0  0  0  0  0
   12.1440    7.8300   -0.2380 C   0  0  0  0  0  3  0  0  0  0  0  0
   12.2490    6.6500   -0.9750 C   0  0  0  0  0  3  0  0  0  0  0  0
   11.9360    5.4200   -0.3860 C   0  0  0  0  0  3  0  0  0  0  0  0
   11.5150    5.3530    0.9440 C   0  0  0  0  0  0  0  0  0  0  0  0
   11.2030    4.1360    1.5350 N   0  0  0  0  0  0  0  0  0  0  0  0
   10.3430    4.7200    4.6310 H   0  0  0  0  0  0  0  0  0  0  0  0
   11.3030    3.2890    0.9700 H   0  0  0  0  0  0  0  0  0  0  0  0
   11.6960    2.7750    5.3740 O   0  0  0  0  0  0  0  0  0  0  0  0
   12.2920    2.1770    5.8640 H   0  0  0  0  0  0  0  0  0  0  0  0
    8.7860   -0.5710    1.8350 C   0  0  0  0  0  2  0  0  0  0  0  0
    9.7300   -1.1850    0.7970 C   0  0  0  0  0  2  0  0  0  0  0  0
    9.9530   -2.6680    0.8950 C   0  0  0  0  0  3  0  0  0  0  0  0
    9.2440   -3.6950    0.0470 C   0  0  0  0  0  2  0  0  0  0  0  0
   10.7040   -3.4140   -0.1800 C   0  0  0  0  0  2  0  0  0  0  0  0
  1  2  2  0  0  0  0
  2 11  1  0  0  0  0
  2  3  1  0  0  0  0
  3  4  2  0  0  0  0
  4  5  1  0  0  0  0
  4 26  1  0  0  0  0
  5  6  1  0  0  0  0
  6  7  2  0  0  0  0
  8  7  1  0  0  0  0
  9  8  2  0  0  0  0
 10  9  1  0  0  0  0
 10  5  2  0  0  0  0
 11 10  1  0  0  0  0
 12  3  1  1  0  0  0
 12 13  1  0  0  0  0
 13 24  1  0  0  0  0
 14 15  2  0  0  0  0
 14 13  1  0  0  0  0
 14 16  2  0  0  0  0
 17 14  1  0  0  0  0
 18 17  1  0  0  0  0
 19 18  2  0  0  0  0
 20 21  2  0  0  0  0
 20 19  1  0  0  0  0
 21 22  1  0  0  0  0
 22 23  1  0  0  0  0
 22 17  2  0  0  0  0
 23 12  1  0  0  0  0
 25 23  1  0  0  0  0
 26 27  1  0  0  0  0
 28 11  1  0  0  0  0
 29 30  1  0  0  0  0
 29 28  1  0  0  0  0
 31 30  1  0  0  0  0
 32 31  1  0  0  0  0
 32 30  1  0  0  0  0
M  END
>  <minimizedAffinity>
-6.48492956

$$$$
