
 OpenBabel09132204463D

 32 36  0  0  1  0  0  0  0  0999 V2000
    9.0500   -4.0180    2.3730 O   0  0  0  0  0  0  0  0  0  0  0  0
    9.2910   -2.9340    1.8300 C   0  0  0  0  0  0  0  0  0  0  0  0
    9.1640   -1.6980    2.6630 C   0  0  0  0  0  0  0  0  0  0  0  0
    9.3940   -0.5040    2.0880 C   0  0  0  0  0  0  0  0  0  0  0  0
    9.8350   -0.3890    0.6850 C   0  0  0  0  0  0  0  0  0  0  0  0
   10.2060    0.8480    0.1210 C   0  0  0  0  0  3  0  0  0  0  0  0
   10.5810    0.9470   -1.2190 C   0  0  0  0  0  3  0  0  0  0  0  0
   10.6000   -0.1900   -2.0120 C   0  0  0  0  0  3  0  0  0  0  0  0
   10.2750   -1.4290   -1.4600 C   0  0  0  0  0  3  0  0  0  0  0  0
    9.9110   -1.5500   -0.1070 C   0  0  0  0  0  0  0  0  0  0  0  0
    9.6440   -2.8180    0.4950 N   0  0  0  0  0  0  0  0  0  0  0  0
    8.7540   -1.8780    4.1110 C   0  0  1  0  0  3  0  0  0  0  0  0
    9.3880   -1.2380    5.0630 N   0  0  0  0  0  0  0  0  0  0  0  0
    9.0860   -1.3210    6.6350 S   0  0  0  0  0  0  0  0  0  0  0  0
   10.1990   -1.9700    7.3000 O   0  0  0  0  0  0  0  0  0  0  0  0
    8.6330   -0.0250    7.1010 O   0  0  0  0  0  0  0  0  0  0  0  0
    7.7140   -2.4060    6.8370 C   0  0  0  0  0  0  0  0  0  0  0  0
    7.2140   -2.6520    8.1200 C   0  0  0  0  0  3  0  0  0  0  0  0
    6.1290   -3.5120    8.2720 C   0  0  0  0  0  3  0  0  0  0  0  0
    5.5610   -4.1120    7.1480 C   0  0  0  0  0  3  0  0  0  0  0  0
    6.0750   -3.8530    5.8730 C   0  0  0  0  0  3  0  0  0  0  0  0
    7.1620   -2.9920    5.7050 C   0  0  0  0  0  0  0  0  0  0  0  0
    7.6770   -2.7300    4.4420 N   0  0  0  0  0  0  0  0  0  0  0  0
   10.1520   -0.6280    4.7920 H   0  0  0  0  0  0  0  0  0  0  0  0
    7.2290   -3.1770    3.6390 H   0  0  0  0  0  0  0  0  0  0  0  0
    9.1800    0.6720    2.7940 O   0  0  0  0  0  0  0  0  0  0  0  0
    8.8860    1.3580    2.1650 H   0  0  0  0  0  0  0  0  0  0  0  0
    9.7370   -4.0580   -0.2880 C   0  0  0  0  0  2  0  0  0  0  0  0
    8.3910   -4.4450   -0.9100 C   0  0  0  0  0  2  0  0  0  0  0  0
    7.7280   -5.6720   -0.3520 C   0  0  0  0  0  3  0  0  0  0  0  0
    6.6380   -5.6530    0.6910 C   0  0  0  0  0  2  0  0  0  0  0  0
    6.3120   -6.0290   -0.7280 C   0  0  0  0  0  2  0  0  0  0  0  0
  2  1  2  0  0  0  0
  2  3  1  0  0  0  0
  4  3  2  0  0  0  0
  4 26  1  0  0  0  0
  5  4  1  0  0  0  0
  6  5  1  0  0  0  0
  7  6  2  0  0  0  0
  8  9  2  0  0  0  0
  8  7  1  0  0  0  0
  9 10  1  0  0  0  0
 10 11  1  0  0  0  0
 10  5  2  0  0  0  0
 11  2  1  0  0  0  0
 12  3  1  6  0  0  0
 12 23  1  0  0  0  0
 12 13  1  0  0  0  0
 13 14  1  0  0  0  0
 14 17  1  0  0  0  0
 14 16  2  0  0  0  0
 14 15  2  0  0  0  0
 17 18  1  0  0  0  0
 18 19  2  0  0  0  0
 20 19  1  0  0  0  0
 21 20  2  0  0  0  0
 22 21  1  0  0  0  0
 22 17  2  0  0  0  0
 23 22  1  0  0  0  0
 24 13  1  0  0  0  0
 25 23  1  0  0  0  0
 27 26  1  0  0  0  0
 28 11  1  0  0  0  0
 29 30  1  0  0  0  0
 29 28  1  0  0  0  0
 30 31  1  0  0  0  0
 32 30  1  0  0  0  0
 32 31  1  0  0  0  0
M  END
>  <minimizedAffinity>
-7.12868452

$$$$
