
 OpenBabel09122222393D

 18 20  0  0  1  0  0  0  0  0999 V2000
   12.1320    3.7990    1.5730 C   0  0  2  0  0  0  0  0  0  0  0  0
   12.1210    5.3420    1.8360 C   0  0  0  0  0  2  0  0  0  0  0  0
   11.9830    5.6620    3.3360 C   0  0  1  0  0  3  0  0  0  0  0  0
   10.6800    5.0450    3.8690 C   0  0  0  0  0  2  0  0  0  0  0  0
   10.7050    3.5200    3.6850 C   0  0  1  0  0  3  0  0  0  0  0  0
   10.8310    3.1910    2.1880 C   0  0  0  0  0  2  0  0  0  0  0  0
   11.9060    2.9360    4.4410 C   0  0  0  0  0  2  0  0  0  0  0  0
   13.2070    3.5490    3.9070 C   0  0  1  0  0  3  0  0  0  0  0  0
   13.3400    3.2270    2.4080 C   0  0  0  0  0  2  0  0  0  0  0  0
   13.1750    5.0700    4.0990 C   0  0  0  0  0  2  0  0  0  0  0  0
   11.7370    2.2640   -0.3770 C   0  0  0  0  0  2  0  0  0  0  0  0
   12.1750    3.4790    0.0260 C   0  0  0  0  0  0  0  0  0  0  0  0
   12.6830    4.4160   -0.6460 O   0  0  0  0  0  0  0  0  0  0  0  0
   11.6990    1.6160   -1.7240 C   0  0  0  0  0  0  0  0  0  0  0  0
   12.5020    2.0060   -2.5870 O   0  0  0  0  0  0  0  0  0  0  0  0
   11.0340   -0.0840   -3.2940 O   0  0  0  0  0  0  0  0  0  0  0  0
   10.8650    0.3890   -2.1130 C   0  0  0  0  0  0  0  0  0  0  0  0
   10.2320   -0.1990   -1.1650 O   0  0  0  0  0  1  0  0  0  0  0  0
  1 12  1  6  0  0  0
  1  2  1  0  0  0  0
  1  6  1  0  0  0  0
  1  9  1  0  0  0  0
  3  2  1  6  0  0  0
  3  4  1  0  0  0  0
  3 10  1  0  0  0  0
  5  6  1  6  0  0  0
  5  4  1  0  0  0  0
  5  7  1  0  0  0  0
  8  9  1  6  0  0  0
  8 10  1  0  0  0  0
  8  7  1  0  0  0  0
 11 12  1  0  0  0  0
 13 12  2  0  0  0  0
 14 11  1  0  0  0  0
 15 14  2  0  0  0  0
 16 17  2  0  0  0  0
 17 14  1  0  0  0  0
 17 18  1  0  0  0  0
M  END
>  <minimizedAffinity>
-4.57045078

$$$$
