
 OpenBabel09122222393D

 18 20  0  0  1  0  0  0  0  0999 V2000
   11.1870    3.5740    1.8070 C   0  0  2  0  0  0  0  0  0  0  0  0
   10.5330    2.6340    2.8740 C   0  0  0  0  0  2  0  0  0  0  0  0
   10.9530    3.0200    4.3050 C   0  0  1  0  0  3  0  0  0  0  0  0
   12.4830    2.9400    4.4230 C   0  0  0  0  0  2  0  0  0  0  0  0
   13.1410    3.9120    3.4320 C   0  0  1  0  0  3  0  0  0  0  0  0
   12.7360    3.5270    1.9990 C   0  0  0  0  0  2  0  0  0  0  0  0
   12.6680    5.3410    3.7310 C   0  0  0  0  0  2  0  0  0  0  0  0
   11.1400    5.4220    3.6090 C   0  0  1  0  0  3  0  0  0  0  0  0
   10.7270    5.0350    2.1790 C   0  0  0  0  0  2  0  0  0  0  0  0
   10.4940    4.4520    4.6050 C   0  0  0  0  0  2  0  0  0  0  0  0
   11.6390    2.1990   -0.2480 C   0  0  0  0  0  2  0  0  0  0  0  0
   10.8300    3.1120    0.3380 C   0  0  0  0  0  0  0  0  0  0  0  0
    9.8310    3.7210   -0.1300 O   0  0  0  0  0  0  0  0  0  0  0  0
   11.6380    1.6030   -1.6190 C   0  0  0  0  0  0  0  0  0  0  0  0
   12.4280    2.0610   -2.4590 O   0  0  0  0  0  0  0  0  0  0  0  0
   11.0080   -0.0250   -3.2780 O   0  0  0  0  0  0  0  0  0  0  0  0
   10.8620    0.3560   -2.0610 C   0  0  0  0  0  0  0  0  0  0  0  0
   10.3050   -0.3330   -1.1330 O   0  0  0  0  0  1  0  0  0  0  0  0
  1 12  1  6  0  0  0
  1  6  1  0  0  0  0
  1  9  1  0  0  0  0
  1  2  1  0  0  0  0
  3  2  1  6  0  0  0
  3  4  1  0  0  0  0
  3 10  1  0  0  0  0
  5  6  1  6  0  0  0
  5  7  1  0  0  0  0
  5  4  1  0  0  0  0
  8  9  1  6  0  0  0
  8  7  1  0  0  0  0
  8 10  1  0  0  0  0
 11 12  1  0  0  0  0
 13 12  2  0  0  0  0
 14 11  1  0  0  0  0
 15 14  2  0  0  0  0
 16 17  2  0  0  0  0
 17 14  1  0  0  0  0
 17 18  1  0  0  0  0
M  END
>  <minimizedAffinity>
-4.73045492

$$$$
