
 OpenBabel09122222393D

 18 20  0  0  1  0  0  0  0  0999 V2000
   10.7480    2.8930    0.5960 C   0  0  2  0  0  0  0  0  0  0  0  0
   12.0900    3.3080   -0.0950 C   0  0  0  0  0  2  0  0  0  0  0  0
   12.4620    4.7700    0.2160 C   0  0  1  0  0  3  0  0  0  0  0  0
   11.3330    5.6940   -0.2670 C   0  0  0  0  0  2  0  0  0  0  0  0
   10.0220    5.3480    0.4560 C   0  0  1  0  0  3  0  0  0  0  0  0
    9.6370    3.8930    0.1420 C   0  0  0  0  0  2  0  0  0  0  0  0
   10.2180    5.5110    1.9700 C   0  0  0  0  0  2  0  0  0  0  0  0
   11.3430    4.5860    2.4530 C   0  0  1  0  0  3  0  0  0  0  0  0
   10.9670    3.1270    2.1390 C   0  0  0  0  0  2  0  0  0  0  0  0
   12.6470    4.9410    1.7280 C   0  0  0  0  0  2  0  0  0  0  0  0
   10.8010    0.9300   -0.9730 C   0  0  0  0  0  2  0  0  0  0  0  0
   10.3240    1.4250    0.1940 C   0  0  0  0  0  0  0  0  0  0  0  0
    9.5230    0.9110    1.0190 O   0  0  0  0  0  0  0  0  0  0  0  0
   10.5550   -0.3650   -1.6790 C   0  0  0  0  0  0  0  0  0  0  0  0
   10.2550   -0.3300   -2.8830 O   0  0  0  0  0  0  0  0  0  0  0  0
   10.1660   -2.0720   -0.0260 O   0  0  0  0  0  1  0  0  0  0  0  0
   10.7940   -1.7670   -1.1030 C   0  0  0  0  0  0  0  0  0  0  0  0
   11.4230   -2.5960   -1.8530 O   0  0  0  0  0  0  0  0  0  0  0  0
  1 12  1  6  0  0  0
  1  9  1  0  0  0  0
  2  1  1  0  0  0  0
  3  2  1  1  0  0  0
  3  4  1  0  0  0  0
  3 10  1  0  0  0  0
  5  4  1  6  0  0  0
  5  7  1  0  0  0  0
  6  5  1  0  0  0  0
  6  1  1  0  0  0  0
  8  7  1  6  0  0  0
  8 10  1  0  0  0  0
  9  8  1  0  0  0  0
 11 12  1  0  0  0  0
 12 13  2  0  0  0  0
 14 17  1  0  0  0  0
 14 11  1  0  0  0  0
 15 14  2  0  0  0  0
 17 16  1  0  0  0  0
 18 17  2  0  0  0  0
M  END
>  <minimizedAffinity>
-5.11515713

$$$$
