
 OpenBabel09122222393D

 18 20  0  0  1  0  0  0  0  0999 V2000
   11.2900    3.3910    1.7230 C   0  0  2  0  0  0  0  0  0  0  0  0
   12.8260    3.3540    2.0230 C   0  0  0  0  0  2  0  0  0  0  0  0
   13.1330    3.7910    3.4680 C   0  0  1  0  0  3  0  0  0  0  0  0
   12.6040    5.2170    3.6900 C   0  0  0  0  0  2  0  0  0  0  0  0
   11.0840    5.2560    3.4710 C   0  0  1  0  0  3  0  0  0  0  0  0
   10.7680    4.8310    2.0270 C   0  0  0  0  0  2  0  0  0  0  0  0
   10.4040    4.2880    4.4490 C   0  0  0  0  0  2  0  0  0  0  0  0
   10.9290    2.8640    4.2250 C   0  0  1  0  0  3  0  0  0  0  0  0
   10.6200    2.4330    2.7800 C   0  0  0  0  0  2  0  0  0  0  0  0
   12.4460    2.8350    4.4500 C   0  0  0  0  0  2  0  0  0  0  0  0
   11.8480    2.2010   -0.4190 C   0  0  0  0  0  2  0  0  0  0  0  0
   10.9900    3.0360    0.2130 C   0  0  0  0  0  0  0  0  0  0  0  0
    9.9830    3.6440   -0.2360 O   0  0  0  0  0  0  0  0  0  0  0  0
   11.9070    1.7160   -1.8320 C   0  0  0  0  0  0  0  0  0  0  0  0
   12.5870    2.3610   -2.6470 O   0  0  0  0  0  0  0  0  0  0  0  0
   12.1620   -0.4380   -2.8760 O   0  0  0  0  0  0  0  0  0  0  0  0
   11.3340    0.3940   -2.3580 C   0  0  0  0  0  0  0  0  0  0  0  0
   10.1190    0.1290   -2.0430 O   0  0  0  0  0  1  0  0  0  0  0  0
  1 12  1  6  0  0  0
  1  2  1  0  0  0  0
  1  6  1  0  0  0  0
  1  9  1  0  0  0  0
  3  2  1  6  0  0  0
  3  4  1  0  0  0  0
  3 10  1  0  0  0  0
  5  6  1  6  0  0  0
  5  4  1  0  0  0  0
  5  7  1  0  0  0  0
  8  9  1  6  0  0  0
  8  7  1  0  0  0  0
  8 10  1  0  0  0  0
 11 12  1  0  0  0  0
 13 12  2  0  0  0  0
 14 11  1  0  0  0  0
 15 14  2  0  0  0  0
 16 17  2  0  0  0  0
 17 18  1  0  0  0  0
 17 14  1  0  0  0  0
M  END
>  <minimizedAffinity>
-4.5347991

$$$$
