
 OpenBabel09122222393D

 18 20  0  0  1  0  0  0  0  0999 V2000
   10.7750   -0.6540   -0.7280 C   0  0  2  0  0  0  0  0  0  0  0  0
   11.4240    0.7600   -0.5570 C   0  0  0  0  0  2  0  0  0  0  0  0
   12.3710    1.0960   -1.7240 C   0  0  1  0  0  3  0  0  0  0  0  0
   13.4780    0.0320   -1.8010 C   0  0  0  0  0  2  0  0  0  0  0  0
   12.8620   -1.3540   -2.0420 C   0  0  1  0  0  3  0  0  0  0  0  0
   11.9230   -1.7030   -0.8750 C   0  0  0  0  0  2  0  0  0  0  0  0
   12.0640   -1.3350   -3.3540 C   0  0  0  0  0  2  0  0  0  0  0  0
   10.9560   -0.2760   -3.2750 C   0  0  1  0  0  3  0  0  0  0  0  0
   10.0140   -0.6160   -2.1070 C   0  0  0  0  0  2  0  0  0  0  0  0
   11.5810    1.1040   -3.0390 C   0  0  0  0  0  2  0  0  0  0  0  0
    9.8880   -2.3210    0.9300 C   0  0  0  0  0  2  0  0  0  0  0  0
    9.8820   -1.0310    0.5200 C   0  0  0  0  0  0  0  0  0  0  0  0
    9.2150   -0.0530    0.9500 O   0  0  0  0  0  0  0  0  0  0  0  0
    9.1280   -3.0270    2.0080 C   0  0  0  0  0  0  0  0  0  0  0  0
    8.3180   -3.9060    1.6760 O   0  0  0  0  0  0  0  0  0  0  0  0
    8.4020   -3.2340    4.2940 O   0  0  0  0  0  1  0  0  0  0  0  0
    9.3630   -2.8870    3.5180 C   0  0  0  0  0  0  0  0  0  0  0  0
   10.5660   -2.6460    3.8920 O   0  0  0  0  0  0  0  0  0  0  0  0
  1  2  1  0  0  0  0
  1 12  1  1  0  0  0
  3 10  1  6  0  0  0
  3  2  1  0  0  0  0
  4  3  1  0  0  0  0
  5  7  1  6  0  0  0
  5  4  1  0  0  0  0
  5  6  1  0  0  0  0
  6  1  1  0  0  0  0
  8  7  1  1  0  0  0
  8 10  1  0  0  0  0
  8  9  1  0  0  0  0
  9  1  1  0  0  0  0
 11 14  1  0  0  0  0
 12 11  1  0  0  0  0
 12 13  2  0  0  0  0
 14 17  1  0  0  0  0
 15 14  2  0  0  0  0
 17 18  2  0  0  0  0
 17 16  1  0  0  0  0
M  END
>  <minimizedAffinity>
-4.38613176

$$$$
