
 OpenBabel09122218353D

 18 20  0  0  1  0  0  0  0  0999 V2000
   10.7170    2.7530    0.4750 C   0  0  2  0  0  0  0  0  0  0  0  0
   10.8940    2.8760    2.0250 C   0  0  0  0  0  2  0  0  0  0  0  0
   11.3200    4.2980    2.4370 C   0  0  1  0  0  3  0  0  0  0  0  0
   12.6450    4.6520    1.7420 C   0  0  0  0  0  2  0  0  0  0  0  0
   12.4690    4.6070    0.2170 C   0  0  1  0  0  3  0  0  0  0  0  0
   12.0540    3.1870   -0.2050 C   0  0  0  0  0  2  0  0  0  0  0  0
   11.3790    5.6040   -0.1990 C   0  0  0  0  0  2  0  0  0  0  0  0
   10.0550    5.2490    0.4910 C   0  0  1  0  0  3  0  0  0  0  0  0
    9.6350    3.8280    0.0770 C   0  0  0  0  0  2  0  0  0  0  0  0
   10.2400    5.3000    2.0130 C   0  0  0  0  0  2  0  0  0  0  0  0
   10.8860    0.8160   -1.1170 C   0  0  0  0  0  2  0  0  0  0  0  0
   10.3750    1.2690    0.0510 C   0  0  0  0  0  0  0  0  0  0  0  0
    9.5970    0.7020    0.8630 O   0  0  0  0  0  0  0  0  0  0  0  0
   10.7160   -0.4820   -1.8410 C   0  0  0  0  0  0  0  0  0  0  0  0
   10.2760   -0.4540   -3.0010 O   0  0  0  0  0  0  0  0  0  0  0  0
   10.2920   -2.7710   -1.2280 O   0  0  0  0  0  1  0  0  0  0  0  0
   11.1850   -1.8580   -1.3510 C   0  0  0  0  0  0  0  0  0  0  0  0
   12.4530   -2.0520   -1.3130 O   0  0  0  0  0  0  0  0  0  0  0  0
  1 12  1  6  0  0  0
  1  2  1  0  0  0  0
  2  3  1  0  0  0  0
  3  4  1  6  0  0  0
  5  6  1  1  0  0  0
  5  4  1  0  0  0  0
  6  1  1  0  0  0  0
  7  5  1  0  0  0  0
  8  7  1  6  0  0  0
  8 10  1  0  0  0  0
  9  1  1  0  0  0  0
  9  8  1  0  0  0  0
 10  3  1  0  0  0  0
 11 12  1  0  0  0  0
 12 13  2  0  0  0  0
 14 17  1  0  0  0  0
 14 11  1  0  0  0  0
 15 14  2  0  0  0  0
 17 18  2  0  0  0  0
 17 16  1  0  0  0  0
M  END
>  <minimizedAffinity>
-5.26068878

$$$$

 OpenBabel09122218353D

 18 20  0  0  1  0  0  0  0  0999 V2000
   10.7770    2.9560    0.4750 C   0  0  2  0  0  0  0  0  0  0  0  0
    9.6650    3.9750    0.0590 C   0  0  0  0  0  2  0  0  0  0  0  0
   10.0230    5.4120    0.4840 C   0  0  1  0  0  3  0  0  0  0  0  0
   10.2130    5.4580    2.0090 C   0  0  0  0  0  2  0  0  0  0  0  0
   11.3520    4.5160    2.4270 C   0  0  1  0  0  3  0  0  0  0  0  0
   10.9980    3.0770    2.0170 C   0  0  0  0  0  2  0  0  0  0  0  0
   12.6490    4.9440    1.7270 C   0  0  0  0  0  2  0  0  0  0  0  0
   12.4610    4.8940    0.2050 C   0  0  1  0  0  3  0  0  0  0  0  0
   12.1030    3.4570   -0.2140 C   0  0  0  0  0  2  0  0  0  0  0  0
   11.3250    5.8400   -0.2030 C   0  0  0  0  0  2  0  0  0  0  0  0
   10.8020    0.9560   -1.0460 C   0  0  0  0  0  2  0  0  0  0  0  0
   10.3590    1.4730    0.1240 C   0  0  0  0  0  0  0  0  0  0  0  0
    9.5940    0.9690    0.9880 O   0  0  0  0  0  0  0  0  0  0  0  0
   10.5500   -0.3590   -1.7120 C   0  0  0  0  0  0  0  0  0  0  0  0
   10.2640   -0.3610   -2.9200 O   0  0  0  0  0  0  0  0  0  0  0  0
   10.1160   -2.0090   -0.0130 O   0  0  0  0  0  1  0  0  0  0  0  0
   10.7650   -1.7440   -1.0880 C   0  0  0  0  0  0  0  0  0  0  0  0
   11.4010   -2.6020   -1.7990 O   0  0  0  0  0  0  0  0  0  0  0  0
  1 12  1  6  0  0  0
  1  6  1  0  0  0  0
  2  1  1  0  0  0  0
  2  3  1  0  0  0  0
  3 10  1  6  0  0  0
  3  4  1  0  0  0  0
  4  5  1  0  0  0  0
  5  7  1  6  0  0  0
  6  5  1  0  0  0  0
  8  9  1  1  0  0  0
  8  7  1  0  0  0  0
  9  1  1  0  0  0  0
 10  8  1  0  0  0  0
 11 12  1  0  0  0  0
 12 13  2  0  0  0  0
 14 17  1  0  0  0  0
 14 11  1  0  0  0  0
 15 14  2  0  0  0  0
 17 16  1  0  0  0  0
 18 17  2  0  0  0  0
M  END
>  <minimizedAffinity>
-5.14558458

$$$$

 OpenBabel09122218353D

 18 20  0  0  1  0  0  0  0  0999 V2000
   10.7480    2.8930    0.5960 C   0  0  2  0  0  0  0  0  0  0  0  0
   12.0900    3.3080   -0.0950 C   0  0  0  0  0  2  0  0  0  0  0  0
   12.4620    4.7700    0.2160 C   0  0  1  0  0  3  0  0  0  0  0  0
   11.3330    5.6940   -0.2670 C   0  0  0  0  0  2  0  0  0  0  0  0
   10.0220    5.3480    0.4560 C   0  0  1  0  0  3  0  0  0  0  0  0
    9.6370    3.8930    0.1420 C   0  0  0  0  0  2  0  0  0  0  0  0
   10.2180    5.5110    1.9700 C   0  0  0  0  0  2  0  0  0  0  0  0
   11.3430    4.5860    2.4530 C   0  0  1  0  0  3  0  0  0  0  0  0
   10.9670    3.1270    2.1390 C   0  0  0  0  0  2  0  0  0  0  0  0
   12.6470    4.9410    1.7280 C   0  0  0  0  0  2  0  0  0  0  0  0
   10.8010    0.9300   -0.9730 C   0  0  0  0  0  2  0  0  0  0  0  0
   10.3240    1.4250    0.1940 C   0  0  0  0  0  0  0  0  0  0  0  0
    9.5230    0.9110    1.0190 O   0  0  0  0  0  0  0  0  0  0  0  0
   10.5550   -0.3650   -1.6790 C   0  0  0  0  0  0  0  0  0  0  0  0
   10.2550   -0.3300   -2.8830 O   0  0  0  0  0  0  0  0  0  0  0  0
   10.1660   -2.0720   -0.0260 O   0  0  0  0  0  1  0  0  0  0  0  0
   10.7940   -1.7670   -1.1030 C   0  0  0  0  0  0  0  0  0  0  0  0
   11.4230   -2.5960   -1.8530 O   0  0  0  0  0  0  0  0  0  0  0  0
  1 12  1  6  0  0  0
  1  9  1  0  0  0  0
  2  3  1  0  0  0  0
  2  1  1  0  0  0  0
  3  4  1  1  0  0  0
  3 10  1  0  0  0  0
  5  4  1  6  0  0  0
  5  7  1  0  0  0  0
  6  5  1  0  0  0  0
  6  1  1  0  0  0  0
  7  8  1  0  0  0  0
  8 10  1  6  0  0  0
  9  8  1  0  0  0  0
 11 12  1  0  0  0  0
 12 13  2  0  0  0  0
 14 17  1  0  0  0  0
 14 11  1  0  0  0  0
 15 14  2  0  0  0  0
 17 16  1  0  0  0  0
 18 17  2  0  0  0  0
M  END
>  <minimizedAffinity>
-5.11515713

$$$$

 OpenBabel09122218353D

 18 20  0  0  1  0  0  0  0  0999 V2000
   11.1870    3.5740    1.8070 C   0  0  2  0  0  0  0  0  0  0  0  0
   10.5330    2.6340    2.8740 C   0  0  0  0  0  2  0  0  0  0  0  0
   10.9530    3.0200    4.3050 C   0  0  1  0  0  3  0  0  0  0  0  0
   12.4830    2.9400    4.4230 C   0  0  0  0  0  2  0  0  0  0  0  0
   13.1410    3.9120    3.4320 C   0  0  1  0  0  3  0  0  0  0  0  0
   12.7360    3.5270    1.9990 C   0  0  0  0  0  2  0  0  0  0  0  0
   12.6680    5.3410    3.7310 C   0  0  0  0  0  2  0  0  0  0  0  0
   11.1400    5.4220    3.6090 C   0  0  1  0  0  3  0  0  0  0  0  0
   10.7270    5.0350    2.1790 C   0  0  0  0  0  2  0  0  0  0  0  0
   10.4940    4.4520    4.6050 C   0  0  0  0  0  2  0  0  0  0  0  0
   11.6390    2.1990   -0.2480 C   0  0  0  0  0  2  0  0  0  0  0  0
   10.8300    3.1120    0.3380 C   0  0  0  0  0  0  0  0  0  0  0  0
    9.8310    3.7210   -0.1300 O   0  0  0  0  0  0  0  0  0  0  0  0
   11.6380    1.6030   -1.6190 C   0  0  0  0  0  0  0  0  0  0  0  0
   12.4280    2.0610   -2.4590 O   0  0  0  0  0  0  0  0  0  0  0  0
   11.0080   -0.0250   -3.2780 O   0  0  0  0  0  0  0  0  0  0  0  0
   10.8620    0.3560   -2.0610 C   0  0  0  0  0  0  0  0  0  0  0  0
   10.3050   -0.3330   -1.1330 O   0  0  0  0  0  1  0  0  0  0  0  0
  1 12  1  6  0  0  0
  1  6  1  0  0  0  0
  1  9  1  0  0  0  0
  1  2  1  0  0  0  0
  3  2  1  6  0  0  0
  3  4  1  0  0  0  0
  3 10  1  0  0  0  0
  5  6  1  6  0  0  0
  5  7  1  0  0  0  0
  5  4  1  0  0  0  0
  8  9  1  6  0  0  0
  8  7  1  0  0  0  0
  8 10  1  0  0  0  0
 11 12  1  0  0  0  0
 13 12  2  0  0  0  0
 14 11  1  0  0  0  0
 15 14  2  0  0  0  0
 16 17  2  0  0  0  0
 17 14  1  0  0  0  0
 17 18  1  0  0  0  0
M  END
>  <minimizedAffinity>
-4.73045492

$$$$

 OpenBabel09122218353D

 18 20  0  0  1  0  0  0  0  0999 V2000
   10.7280    3.2450    0.4750 C   0  0  2  0  0  0  0  0  0  0  0  0
    9.6160    4.2250   -0.0270 C   0  0  0  0  0  2  0  0  0  0  0  0
    9.9220    5.6820    0.3680 C   0  0  1  0  0  3  0  0  0  0  0  0
   10.0350    5.7810    1.8980 C   0  0  0  0  0  2  0  0  0  0  0  0
   11.1730    4.8790    2.4010 C   0  0  1  0  0  3  0  0  0  0  0  0
   10.8710    3.4200    2.0210 C   0  0  0  0  0  2  0  0  0  0  0  0
   12.4930    5.3150    1.7500 C   0  0  0  0  0  2  0  0  0  0  0  0
   12.3810    5.2130    0.2230 C   0  0  1  0  0  3  0  0  0  0  0  0
   12.0750    3.7560   -0.1650 C   0  0  0  0  0  2  0  0  0  0  0  0
   11.2460    6.1190   -0.2700 C   0  0  0  0  0  2  0  0  0  0  0  0
    9.8320    0.9970    1.1510 C   0  0  0  0  0  2  0  0  0  0  0  0
   10.3600    1.7430    0.1520 C   0  0  0  0  0  0  0  0  0  0  0  0
   10.6700    1.4120   -1.0220 O   0  0  0  0  0  0  0  0  0  0  0  0
    9.4380   -0.4440    1.2150 C   0  0  0  0  0  0  0  0  0  0  0  0
    9.6260   -1.1500    0.2110 O   0  0  0  0  0  0  0  0  0  0  0  0
    8.4610   -2.3640    2.2910 O   0  0  0  0  0  0  0  0  0  0  0  0
    8.9650   -1.1960    2.4650 C   0  0  0  0  0  0  0  0  0  0  0  0
    9.3060   -0.7000    3.5980 O   0  0  0  0  0  1  0  0  0  0  0  0
  1 12  1  6  0  0  0
  1  6  1  0  0  0  0
  2  3  1  0  0  0  0
  2  1  1  0  0  0  0
  3 10  1  6  0  0  0
  3  4  1  0  0  0  0
  4  5  1  0  0  0  0
  5  7  1  6  0  0  0
  6  5  1  0  0  0  0
  8 10  1  1  0  0  0
  8  7  1  0  0  0  0
  9  8  1  0  0  0  0
  9  1  1  0  0  0  0
 11 14  1  0  0  0  0
 12 11  1  0  0  0  0
 13 12  2  0  0  0  0
 14 17  1  0  0  0  0
 15 14  2  0  0  0  0
 16 17  2  0  0  0  0
 17 18  1  0  0  0  0
M  END
>  <minimizedAffinity>
-4.57438326

$$$$

 OpenBabel09122218353D

 18 20  0  0  1  0  0  0  0  0999 V2000
   12.1320    3.7990    1.5730 C   0  0  2  0  0  0  0  0  0  0  0  0
   12.1210    5.3420    1.8360 C   0  0  0  0  0  2  0  0  0  0  0  0
   11.9830    5.6620    3.3360 C   0  0  1  0  0  3  0  0  0  0  0  0
   10.6800    5.0450    3.8690 C   0  0  0  0  0  2  0  0  0  0  0  0
   10.7050    3.5200    3.6850 C   0  0  1  0  0  3  0  0  0  0  0  0
   10.8310    3.1910    2.1880 C   0  0  0  0  0  2  0  0  0  0  0  0
   11.9060    2.9360    4.4410 C   0  0  0  0  0  2  0  0  0  0  0  0
   13.2070    3.5490    3.9070 C   0  0  1  0  0  3  0  0  0  0  0  0
   13.3400    3.2270    2.4080 C   0  0  0  0  0  2  0  0  0  0  0  0
   13.1750    5.0700    4.0990 C   0  0  0  0  0  2  0  0  0  0  0  0
   11.7370    2.2640   -0.3770 C   0  0  0  0  0  2  0  0  0  0  0  0
   12.1750    3.4790    0.0260 C   0  0  0  0  0  0  0  0  0  0  0  0
   12.6830    4.4160   -0.6460 O   0  0  0  0  0  0  0  0  0  0  0  0
   11.6990    1.6160   -1.7240 C   0  0  0  0  0  0  0  0  0  0  0  0
   12.5020    2.0060   -2.5870 O   0  0  0  0  0  0  0  0  0  0  0  0
   11.0340   -0.0840   -3.2940 O   0  0  0  0  0  0  0  0  0  0  0  0
   10.8650    0.3890   -2.1130 C   0  0  0  0  0  0  0  0  0  0  0  0
   10.2320   -0.1990   -1.1650 O   0  0  0  0  0  1  0  0  0  0  0  0
  1 12  1  6  0  0  0
  1  2  1  0  0  0  0
  1  6  1  0  0  0  0
  1  9  1  0  0  0  0
  3  2  1  6  0  0  0
  3  4  1  0  0  0  0
  3 10  1  0  0  0  0
  5  6  1  6  0  0  0
  5  4  1  0  0  0  0
  5  7  1  0  0  0  0
  8  9  1  6  0  0  0
  8 10  1  0  0  0  0
  8  7  1  0  0  0  0
 11 12  1  0  0  0  0
 13 12  2  0  0  0  0
 14 11  1  0  0  0  0
 15 14  2  0  0  0  0
 16 17  2  0  0  0  0
 17 14  1  0  0  0  0
 17 18  1  0  0  0  0
M  END
>  <minimizedAffinity>
-4.57045078

$$$$

 OpenBabel09122218353D

 18 20  0  0  1  0  0  0  0  0999 V2000
   11.2900    3.3910    1.7230 C   0  0  2  0  0  0  0  0  0  0  0  0
   12.8260    3.3540    2.0230 C   0  0  0  0  0  2  0  0  0  0  0  0
   13.1330    3.7910    3.4680 C   0  0  1  0  0  3  0  0  0  0  0  0
   12.6040    5.2170    3.6900 C   0  0  0  0  0  2  0  0  0  0  0  0
   11.0840    5.2560    3.4710 C   0  0  1  0  0  3  0  0  0  0  0  0
   10.7680    4.8310    2.0270 C   0  0  0  0  0  2  0  0  0  0  0  0
   10.4040    4.2880    4.4490 C   0  0  0  0  0  2  0  0  0  0  0  0
   10.9290    2.8640    4.2250 C   0  0  1  0  0  3  0  0  0  0  0  0
   10.6200    2.4330    2.7800 C   0  0  0  0  0  2  0  0  0  0  0  0
   12.4460    2.8350    4.4500 C   0  0  0  0  0  2  0  0  0  0  0  0
   11.8480    2.2010   -0.4190 C   0  0  0  0  0  2  0  0  0  0  0  0
   10.9900    3.0360    0.2130 C   0  0  0  0  0  0  0  0  0  0  0  0
    9.9830    3.6440   -0.2360 O   0  0  0  0  0  0  0  0  0  0  0  0
   11.9070    1.7160   -1.8320 C   0  0  0  0  0  0  0  0  0  0  0  0
   12.5870    2.3610   -2.6470 O   0  0  0  0  0  0  0  0  0  0  0  0
   12.1620   -0.4380   -2.8760 O   0  0  0  0  0  0  0  0  0  0  0  0
   11.3340    0.3940   -2.3580 C   0  0  0  0  0  0  0  0  0  0  0  0
   10.1190    0.1290   -2.0430 O   0  0  0  0  0  1  0  0  0  0  0  0
  1 12  1  6  0  0  0
  1  2  1  0  0  0  0
  1  6  1  0  0  0  0
  1  9  1  0  0  0  0
  3  2  1  6  0  0  0
  3  4  1  0  0  0  0
  3 10  1  0  0  0  0
  5  6  1  6  0  0  0
  5  4  1  0  0  0  0
  5  7  1  0  0  0  0
  8  9  1  6  0  0  0
  8  7  1  0  0  0  0
  8 10  1  0  0  0  0
 11 12  1  0  0  0  0
 13 12  2  0  0  0  0
 14 11  1  0  0  0  0
 15 14  2  0  0  0  0
 16 17  2  0  0  0  0
 17 18  1  0  0  0  0
 17 14  1  0  0  0  0
M  END
>  <minimizedAffinity>
-4.5347991

$$$$

 OpenBabel09122218353D

 18 20  0  0  1  0  0  0  0  0999 V2000
   11.9320    3.6130    1.6900 C   0  0  2  0  0  0  0  0  0  0  0  0
   10.7610    2.8660    2.4130 C   0  0  0  0  0  2  0  0  0  0  0  0
   10.7320    3.1800    3.9200 C   0  0  1  0  0  3  0  0  0  0  0  0
   12.0700    2.7630    4.5520 C   0  0  0  0  0  2  0  0  0  0  0  0
   13.2240    3.5420    3.9040 C   0  0  1  0  0  3  0  0  0  0  0  0
   13.2680    3.2260    2.3990 C   0  0  0  0  0  2  0  0  0  0  0  0
   12.9980    5.0470    4.1040 C   0  0  0  0  0  2  0  0  0  0  0  0
   11.6640    5.4640    3.4700 C   0  0  1  0  0  3  0  0  0  0  0  0
   11.7000    5.1480    1.9650 C   0  0  0  0  0  2  0  0  0  0  0  0
   10.5180    4.6840    4.1260 C   0  0  0  0  0  2  0  0  0  0  0  0
   11.4810    2.0220   -0.2030 C   0  0  0  0  0  2  0  0  0  0  0  0
   12.0160    3.2110    0.1640 C   0  0  0  0  0  0  0  0  0  0  0  0
   12.6420    4.0590   -0.5250 O   0  0  0  0  0  0  0  0  0  0  0  0
   11.4440    1.3110   -1.5180 C   0  0  0  0  0  0  0  0  0  0  0  0
   10.3490    0.8990   -1.9320 O   0  0  0  0  0  0  0  0  0  0  0  0
   12.8260    2.1590   -3.2970 O   0  0  0  0  0  0  0  0  0  0  0  0
   12.6110    1.1740   -2.5040 C   0  0  0  0  0  0  0  0  0  0  0  0
   13.4110    0.1900   -2.3130 O   0  0  0  0  0  1  0  0  0  0  0  0
  1 12  1  6  0  0  0
  1  9  1  0  0  0  0
  1  6  1  0  0  0  0
  1  2  1  0  0  0  0
  3  2  1  6  0  0  0
  3 10  1  0  0  0  0
  3  4  1  0  0  0  0
  5  6  1  6  0  0  0
  5  7  1  0  0  0  0
  5  4  1  0  0  0  0
  8  9  1  6  0  0  0
  8  7  1  0  0  0  0
  8 10  1  0  0  0  0
 11 12  1  0  0  0  0
 13 12  2  0  0  0  0
 14 11  1  0  0  0  0
 15 14  2  0  0  0  0
 16 17  2  0  0  0  0
 17 18  1  0  0  0  0
 17 14  1  0  0  0  0
M  END
>  <minimizedAffinity>
-4.45250559

$$$$

 OpenBabel09122218353D

 18 20  0  0  1  0  0  0  0  0999 V2000
   10.5190    3.2330    1.8560 C   0  0  2  0  0  0  0  0  0  0  0  0
   12.0420    3.2370    1.4950 C   0  0  0  0  0  2  0  0  0  0  0  0
   12.5160    4.6320    1.0450 C   0  0  1  0  0  3  0  0  0  0  0  0
   11.7000    5.0740   -0.1800 C   0  0  0  0  0  2  0  0  0  0  0  0
   10.2090    5.1470    0.1780 C   0  0  1  0  0  3  0  0  0  0  0  0
    9.7230    3.7550    0.6180 C   0  0  0  0  0  2  0  0  0  0  0  0
   10.0090    6.1450    1.3270 C   0  0  0  0  0  2  0  0  0  0  0  0
   10.8200    5.7010    2.5510 C   0  0  1  0  0  3  0  0  0  0  0  0
   10.3430    4.3070    2.9950 C   0  0  0  0  0  2  0  0  0  0  0  0
   12.3070    5.6360    2.1850 C   0  0  0  0  0  2  0  0  0  0  0  0
    9.8730    0.8920    1.2100 C   0  0  0  0  0  2  0  0  0  0  0  0
   10.0190    1.7800    2.2220 C   0  0  0  0  0  0  0  0  0  0  0  0
    9.7600    1.6520    3.4480 O   0  0  0  0  0  0  0  0  0  0  0  0
    9.3680   -0.5160    1.1860 C   0  0  0  0  0  0  0  0  0  0  0  0
    8.3750   -0.7950    1.8760 O   0  0  0  0  0  0  0  0  0  0  0  0
    9.3790   -2.8100    0.4560 O   0  0  0  0  0  1  0  0  0  0  0  0
    9.8590   -1.6360    0.2600 C   0  0  0  0  0  0  0  0  0  0  0  0
   10.5360   -1.2750   -0.7680 O   0  0  0  0  0  0  0  0  0  0  0  0
  1 12  1  1  0  0  0
  1  9  1  0  0  0  0
  2  1  1  0  0  0  0
  3  4  1  6  0  0  0
  3  2  1  0  0  0  0
  3 10  1  0  0  0  0
  5  4  1  1  0  0  0
  5  6  1  0  0  0  0
  5  7  1  0  0  0  0
  6  1  1  0  0  0  0
  8  7  1  6  0  0  0
  8  9  1  0  0  0  0
 10  8  1  0  0  0  0
 11 12  1  0  0  0  0
 12 13  2  0  0  0  0
 14 11  1  0  0  0  0
 14 15  2  0  0  0  0
 17 16  1  0  0  0  0
 17 14  1  0  0  0  0
 18 17  2  0  0  0  0
M  END
>  <minimizedAffinity>
-4.44345379

$$$$

 OpenBabel09122218353D

 18 20  0  0  1  0  0  0  0  0999 V2000
   10.7750   -0.6540   -0.7280 C   0  0  2  0  0  0  0  0  0  0  0  0
   11.4240    0.7600   -0.5570 C   0  0  0  0  0  2  0  0  0  0  0  0
   12.3710    1.0960   -1.7240 C   0  0  1  0  0  3  0  0  0  0  0  0
   13.4780    0.0320   -1.8010 C   0  0  0  0  0  2  0  0  0  0  0  0
   12.8620   -1.3540   -2.0420 C   0  0  1  0  0  3  0  0  0  0  0  0
   11.9230   -1.7030   -0.8750 C   0  0  0  0  0  2  0  0  0  0  0  0
   12.0640   -1.3350   -3.3540 C   0  0  0  0  0  2  0  0  0  0  0  0
   10.9560   -0.2760   -3.2750 C   0  0  1  0  0  3  0  0  0  0  0  0
   10.0140   -0.6160   -2.1070 C   0  0  0  0  0  2  0  0  0  0  0  0
   11.5810    1.1040   -3.0390 C   0  0  0  0  0  2  0  0  0  0  0  0
    9.8880   -2.3210    0.9300 C   0  0  0  0  0  2  0  0  0  0  0  0
    9.8820   -1.0310    0.5200 C   0  0  0  0  0  0  0  0  0  0  0  0
    9.2150   -0.0530    0.9500 O   0  0  0  0  0  0  0  0  0  0  0  0
    9.1280   -3.0270    2.0080 C   0  0  0  0  0  0  0  0  0  0  0  0
    8.3180   -3.9060    1.6760 O   0  0  0  0  0  0  0  0  0  0  0  0
    8.4020   -3.2340    4.2940 O   0  0  0  0  0  1  0  0  0  0  0  0
    9.3630   -2.8870    3.5180 C   0  0  0  0  0  0  0  0  0  0  0  0
   10.5660   -2.6460    3.8920 O   0  0  0  0  0  0  0  0  0  0  0  0
  1  2  1  0  0  0  0
  1 12  1  1  0  0  0
  3 10  1  6  0  0  0
  3  2  1  0  0  0  0
  4  3  1  0  0  0  0
  5  7  1  6  0  0  0
  5  4  1  0  0  0  0
  5  6  1  0  0  0  0
  6  1  1  0  0  0  0
  8  7  1  1  0  0  0
  8 10  1  0  0  0  0
  8  9  1  0  0  0  0
  9  1  1  0  0  0  0
 11 14  1  0  0  0  0
 12 11  1  0  0  0  0
 12 13  2  0  0  0  0
 14 17  1  0  0  0  0
 15 14  2  0  0  0  0
 17 18  2  0  0  0  0
 17 16  1  0  0  0  0
M  END
>  <minimizedAffinity>
-4.38613176

$$$$
