
 OpenBabel09122222393D

 18 20  0  0  1  0  0  0  0  0999 V2000
   10.5190    3.2330    1.8560 C   0  0  2  0  0  0  0  0  0  0  0  0
   12.0420    3.2370    1.4950 C   0  0  0  0  0  2  0  0  0  0  0  0
   12.5160    4.6320    1.0450 C   0  0  1  0  0  3  0  0  0  0  0  0
   11.7000    5.0740   -0.1800 C   0  0  0  0  0  2  0  0  0  0  0  0
   10.2090    5.1470    0.1780 C   0  0  1  0  0  3  0  0  0  0  0  0
    9.7230    3.7550    0.6180 C   0  0  0  0  0  2  0  0  0  0  0  0
   10.0090    6.1450    1.3270 C   0  0  0  0  0  2  0  0  0  0  0  0
   10.8200    5.7010    2.5510 C   0  0  1  0  0  3  0  0  0  0  0  0
   10.3430    4.3070    2.9950 C   0  0  0  0  0  2  0  0  0  0  0  0
   12.3070    5.6360    2.1850 C   0  0  0  0  0  2  0  0  0  0  0  0
    9.8730    0.8920    1.2100 C   0  0  0  0  0  2  0  0  0  0  0  0
   10.0190    1.7800    2.2220 C   0  0  0  0  0  0  0  0  0  0  0  0
    9.7600    1.6520    3.4480 O   0  0  0  0  0  0  0  0  0  0  0  0
    9.3680   -0.5160    1.1860 C   0  0  0  0  0  0  0  0  0  0  0  0
    8.3750   -0.7950    1.8760 O   0  0  0  0  0  0  0  0  0  0  0  0
    9.3790   -2.8100    0.4560 O   0  0  0  0  0  1  0  0  0  0  0  0
    9.8590   -1.6360    0.2600 C   0  0  0  0  0  0  0  0  0  0  0  0
   10.5360   -1.2750   -0.7680 O   0  0  0  0  0  0  0  0  0  0  0  0
  1 12  1  1  0  0  0
  1  9  1  0  0  0  0
  2  1  1  0  0  0  0
  3  4  1  6  0  0  0
  3  2  1  0  0  0  0
  3 10  1  0  0  0  0
  5  4  1  1  0  0  0
  5  6  1  0  0  0  0
  5  7  1  0  0  0  0
  6  1  1  0  0  0  0
  8  7  1  6  0  0  0
  8  9  1  0  0  0  0
 10  8  1  0  0  0  0
 11 12  1  0  0  0  0
 12 13  2  0  0  0  0
 14 11  1  0  0  0  0
 14 15  2  0  0  0  0
 17 16  1  0  0  0  0
 17 14  1  0  0  0  0
 18 17  2  0  0  0  0
M  END
>  <minimizedAffinity>
-4.44345379

$$$$
