
 OpenBabel09132204463D

 36 40  0  0  1  0  0  0  0  0999 V2000
    9.6560    5.1770   -0.4450 O   0  0  0  0  0  0  0  0  0  0  0  0
    9.9260    5.0570    0.7560 C   0  0  0  0  0  0  0  0  0  0  0  0
   10.1170    6.2980    1.5690 C   0  0  0  0  0  0  0  0  0  0  0  0
   10.4930    6.1800    2.8560 C   0  0  0  0  0  0  0  0  0  0  0  0
   10.6680    4.8630    3.5050 C   0  0  0  0  0  0  0  0  0  0  0  0
   10.9810    4.7250    4.8710 C   0  0  0  0  0  3  0  0  0  0  0  0
   11.1770    3.4660    5.4430 C   0  0  0  0  0  3  0  0  0  0  0  0
   11.0550    2.3240    4.6640 C   0  0  0  0  0  3  0  0  0  0  0  0
   10.7070    2.4390    3.3200 C   0  0  0  0  0  3  0  0  0  0  0  0
   10.4880    3.6990    2.7370 C   0  0  0  0  0  0  0  0  0  0  0  0
   10.0680    3.8250    1.3850 N   0  0  0  0  0  0  0  0  0  0  0  0
    9.8840    7.6190    0.8670 C   0  0  1  0  0  3  0  0  0  0  0  0
    9.0980    8.5220    1.4000 N   0  0  0  0  0  0  0  0  0  0  0  0
    8.7470    9.9650    0.7910 S   0  0  0  0  0  0  0  0  0  0  0  0
    7.3480    9.9930    0.4150 O   0  0  0  0  0  0  0  0  0  0  0  0
    9.2730   10.9890    1.6710 O   0  0  0  0  0  0  0  0  0  0  0  0
    9.6490   10.1160   -0.7140 C   0  0  0  0  0  0  0  0  0  0  0  0
    9.5500   11.2980   -1.4590 C   0  0  0  0  0  3  0  0  0  0  0  0
   10.2660   11.4120   -2.6470 C   0  0  0  0  0  3  0  0  0  0  0  0
   11.0670   10.3530   -3.0750 C   0  0  0  0  0  3  0  0  0  0  0  0
   11.1530    9.1800   -2.3170 C   0  0  0  0  0  3  0  0  0  0  0  0
   10.4410    9.0510   -1.1220 C   0  0  0  0  0  0  0  0  0  0  0  0
   10.5240    7.8910   -0.3620 N   0  0  0  0  0  0  0  0  0  0  0  0
    8.6510    8.3010    2.2830 H   0  0  0  0  0  0  0  0  0  0  0  0
   11.1280    7.1410   -0.7000 H   0  0  0  0  0  0  0  0  0  0  0  0
   10.7750    7.3090    3.6110 O   0  0  0  0  0  0  0  0  0  0  0  0
   11.4690    7.0850    4.2600 H   0  0  0  0  0  0  0  0  0  0  0  0
    9.8520    2.6500    0.6050 N   0  0  0  0  0  0  0  0  0  0  0  0
    9.8030    1.8550    1.2500 H   0  0  0  0  0  0  0  0  0  0  0  0
   10.9230    2.4150   -0.3810 C   0  0  0  0  0  2  0  0  0  0  0  0
   10.7880    1.1370   -1.2340 C   0  0  0  0  0  3  0  0  0  0  0  0
   12.0880    0.7920   -1.9830 C   0  0  0  0  0  2  0  0  0  0  0  0
   11.9550   -0.5070   -2.7760 C   0  0  0  0  0  2  0  0  0  0  0  0
   11.5210   -1.6680   -1.8880 C   0  0  0  0  0  2  0  0  0  0  0  0
   10.2420   -1.3420   -1.1270 C   0  0  0  0  0  2  0  0  0  0  0  0
   10.3740   -0.0430   -0.3350 C   0  0  0  0  0  2  0  0  0  0  0  0
  1  2  2  0  0  0  0
  2 11  1  0  0  0  0
  2  3  1  0  0  0  0
  3  4  2  0  0  0  0
  4  5  1  0  0  0  0
  4 26  1  0  0  0  0
  5  6  1  0  0  0  0
  6  7  2  0  0  0  0
  8  7  1  0  0  0  0
  9  8  2  0  0  0  0
 10  9  1  0  0  0  0
 10  5  2  0  0  0  0
 11 10  1  0  0  0  0
 12 13  1  0  0  0  0
 12  3  1  1  0  0  0
 13 24  1  0  0  0  0
 14 13  1  0  0  0  0
 14 16  2  0  0  0  0
 15 14  2  0  0  0  0
 17 14  1  0  0  0  0
 18 17  2  0  0  0  0
 19 18  1  0  0  0  0
 20 19  2  0  0  0  0
 20 21  1  0  0  0  0
 21 22  2  0  0  0  0
 22 17  1  0  0  0  0
 22 23  1  0  0  0  0
 23 12  1  0  0  0  0
 25 23  1  0  0  0  0
 26 27  1  0  0  0  0
 28 29  1  0  0  0  0
 28 11  1  0  0  0  0
 30 28  1  0  0  0  0
 31 30  1  0  0  0  0
 31 36  1  0  0  0  0
 32 31  1  0  0  0  0
 33 32  1  0  0  0  0
 33 34  1  0  0  0  0
 34 35  1  0  0  0  0
 35 36  1  0  0  0  0
M  END
>  <minimizedAffinity>
-7.76065397

$$$$
