
 OpenBabel09132204463D

 36 40  0  0  1  0  0  0  0  0999 V2000
    8.6990    1.2760    2.0810 O   0  0  0  0  0  0  0  0  0  0  0  0
    9.4420    0.7450    1.2460 C   0  0  0  0  0  0  0  0  0  0  0  0
   10.3960    1.6140    0.4910 C   0  0  0  0  0  0  0  0  0  0  0  0
   11.1490    1.0620   -0.4800 C   0  0  0  0  0  0  0  0  0  0  0  0
   11.1020   -0.3840   -0.7830 C   0  0  0  0  0  0  0  0  0  0  0  0
   11.9430   -0.9880   -1.7370 C   0  0  0  0  0  3  0  0  0  0  0  0
   11.8450   -2.3510   -2.0260 C   0  0  0  0  0  3  0  0  0  0  0  0
   10.9140   -3.1360   -1.3600 C   0  0  0  0  0  3  0  0  0  0  0  0
   10.1020   -2.5640   -0.3830 C   0  0  0  0  0  3  0  0  0  0  0  0
   10.2030   -1.1970   -0.0700 C   0  0  0  0  0  0  0  0  0  0  0  0
    9.4270   -0.6170    0.9700 N   0  0  0  0  0  0  0  0  0  0  0  0
   10.4360    3.0800    0.8690 C   0  0  1  0  0  3  0  0  0  0  0  0
   10.2240    4.0030   -0.0360 N   0  0  0  0  0  0  0  0  0  0  0  0
   10.2300    5.5910    0.1970 S   0  0  0  0  0  0  0  0  0  0  0  0
   11.3620    6.1690   -0.4990 O   0  0  0  0  0  0  0  0  0  0  0  0
    8.8980    6.1080   -0.0470 O   0  0  0  0  0  0  0  0  0  0  0  0
   10.5380    5.8540    1.9110 C   0  0  0  0  0  0  0  0  0  0  0  0
   10.5770    7.1610    2.4100 C   0  0  0  0  0  3  0  0  0  0  0  0
   10.8210    7.3620    3.7650 C   0  0  0  0  0  3  0  0  0  0  0  0
   11.0220    6.2650    4.6020 C   0  0  0  0  0  3  0  0  0  0  0  0
   10.9790    4.9650    4.0840 C   0  0  0  0  0  3  0  0  0  0  0  0
   10.7340    4.7470    2.7260 C   0  0  0  0  0  0  0  0  0  0  0  0
   10.6880    3.4600    2.2060 N   0  0  0  0  0  0  0  0  0  0  0  0
   10.0450    3.7030   -0.9880 H   0  0  0  0  0  0  0  0  0  0  0  0
   10.8280    2.6790    2.8490 H   0  0  0  0  0  0  0  0  0  0  0  0
   11.9730    1.8550   -1.2660 O   0  0  0  0  0  0  0  0  0  0  0  0
   12.0270    1.4610   -2.1580 H   0  0  0  0  0  0  0  0  0  0  0  0
    8.5330   -1.4390    1.7200 N   0  0  0  0  0  0  0  0  0  0  0  0
    8.2100   -0.8920    2.5230 H   0  0  0  0  0  0  0  0  0  0  0  0
    9.1660   -2.6820    2.1970 C   0  0  0  0  0  2  0  0  0  0  0  0
    8.2220   -3.8840    2.4090 C   0  0  0  0  0  3  0  0  0  0  0  0
    6.8270   -3.4550    2.8960 C   0  0  0  0  0  2  0  0  0  0  0  0
    5.8880   -4.6520    3.0440 C   0  0  0  0  0  2  0  0  0  0  0  0
    5.7850   -5.4510    1.7500 C   0  0  0  0  0  2  0  0  0  0  0  0
    7.1580   -5.8750    1.2430 C   0  0  0  0  0  2  0  0  0  0  0  0
    8.0970   -4.6800    1.0960 C   0  0  0  0  0  2  0  0  0  0  0  0
  2  1  2  0  0  0  0
  3  2  1  0  0  0  0
  4  3  2  0  0  0  0
  5  4  1  0  0  0  0
  5 10  1  0  0  0  0
  6  5  2  0  0  0  0
  7  6  1  0  0  0  0
  7  8  2  0  0  0  0
  8  9  1  0  0  0  0
  9 10  2  0  0  0  0
 10 11  1  0  0  0  0
 11  2  1  0  0  0  0
 11 28  1  0  0  0  0
 12  3  1  1  0  0  0
 12 23  1  0  0  0  0
 13 14  1  0  0  0  0
 13 12  1  0  0  0  0
 14 17  1  0  0  0  0
 15 14  2  0  0  0  0
 16 14  2  0  0  0  0
 17 18  2  0  0  0  0
 17 22  1  0  0  0  0
 18 19  1  0  0  0  0
 19 20  2  0  0  0  0
 21 20  1  0  0  0  0
 22 21  2  0  0  0  0
 23 22  1  0  0  0  0
 23 25  1  0  0  0  0
 24 13  1  0  0  0  0
 26  4  1  0  0  0  0
 27 26  1  0  0  0  0
 28 30  1  0  0  0  0
 28 29  1  0  0  0  0
 30 31  1  0  0  0  0
 31 32  1  0  0  0  0
 32 33  1  0  0  0  0
 34 33  1  0  0  0  0
 35 34  1  0  0  0  0
 36 35  1  0  0  0  0
 36 31  1  0  0  0  0
M  END
>  <minimizedAffinity>
-6.708323

$$$$
