
 OpenBabel09132204463D

 36 40  0  0  1  0  0  0  0  0999 V2000
   10.2090    4.4800    0.1840 O   0  0  0  0  0  0  0  0  0  0  0  0
   10.3520    4.5190    1.4120 C   0  0  0  0  0  0  0  0  0  0  0  0
   10.3800    5.8570    2.0820 C   0  0  0  0  0  0  0  0  0  0  0  0
   10.6200    5.9150    3.4050 C   0  0  0  0  0  0  0  0  0  0  0  0
   10.7990    4.6980    4.2260 C   0  0  0  0  0  0  0  0  0  0  0  0
   10.9670    4.7420    5.6220 C   0  0  0  0  0  3  0  0  0  0  0  0
   11.1720    3.5750    6.3620 C   0  0  0  0  0  3  0  0  0  0  0  0
   11.2030    2.3450    5.7210 C   0  0  0  0  0  3  0  0  0  0  0  0
   10.9980    2.2780    4.3440 C   0  0  0  0  0  3  0  0  0  0  0  0
   10.7720    3.4440    3.5920 C   0  0  0  0  0  0  0  0  0  0  0  0
   10.4960    3.3820    2.1990 N   0  0  0  0  0  0  0  0  0  0  0  0
   10.1490    7.0680    1.2030 C   0  0  1  0  0  3  0  0  0  0  0  0
    9.3250    8.0130    1.5820 N   0  0  0  0  0  0  0  0  0  0  0  0
    8.9690    9.3530    0.7750 S   0  0  0  0  0  0  0  0  0  0  0  0
    7.5860    9.2960    0.3450 O   0  0  0  0  0  0  0  0  0  0  0  0
    9.4380   10.4970    1.5310 O   0  0  0  0  0  0  0  0  0  0  0  0
    9.9280    9.3290   -0.7020 C   0  0  0  0  0  0  0  0  0  0  0  0
    9.8360   10.4000   -1.6000 C   0  0  0  0  0  3  0  0  0  0  0  0
   10.5970   10.3750   -2.7640 C   0  0  0  0  0  3  0  0  0  0  0  0
   11.4360    9.2900   -3.0190 C   0  0  0  0  0  3  0  0  0  0  0  0
   11.5150    8.2300   -2.1100 C   0  0  0  0  0  3  0  0  0  0  0  0
   10.7580    8.2400   -0.9350 C   0  0  0  0  0  0  0  0  0  0  0  0
   10.8330    7.1920   -0.0260 N   0  0  0  0  0  0  0  0  0  0  0  0
    8.8460    7.8980    2.4690 H   0  0  0  0  0  0  0  0  0  0  0  0
   11.4660    6.4200   -0.2390 H   0  0  0  0  0  0  0  0  0  0  0  0
   10.7510    7.1420    4.0410 O   0  0  0  0  0  0  0  0  0  0  0  0
   11.3810    7.0450    4.7800 H   0  0  0  0  0  0  0  0  0  0  0  0
   10.4360    2.1120    1.5510 N   0  0  0  0  0  0  0  0  0  0  0  0
   10.7550    2.2420    0.5860 H   0  0  0  0  0  0  0  0  0  0  0  0
    9.0780    1.5390    1.5450 C   0  0  0  0  0  2  0  0  0  0  0  0
    8.9940   -0.0020    1.5210 C   0  0  0  0  0  3  0  0  0  0  0  0
    9.8220   -0.6170    0.3790 C   0  0  0  0  0  2  0  0  0  0  0  0
    9.7750   -2.1440    0.4060 C   0  0  0  0  0  2  0  0  0  0  0  0
   10.2220   -2.6980    1.7550 C   0  0  0  0  0  2  0  0  0  0  0  0
    9.4220   -2.0910    2.9010 C   0  0  0  0  0  2  0  0  0  0  0  0
    9.4680   -0.5660    2.8740 C   0  0  0  0  0  2  0  0  0  0  0  0
  1  2  2  0  0  0  0
  2  3  1  0  0  0  0
  2 11  1  0  0  0  0
  3  4  2  0  0  0  0
  4 26  1  0  0  0  0
  4  5  1  0  0  0  0
  5  6  1  0  0  0  0
  6  7  2  0  0  0  0
  8  7  1  0  0  0  0
  9  8  2  0  0  0  0
 10  5  2  0  0  0  0
 10  9  1  0  0  0  0
 11 10  1  0  0  0  0
 12 13  1  0  0  0  0
 12  3  1  1  0  0  0
 13 24  1  0  0  0  0
 14 16  2  0  0  0  0
 14 13  1  0  0  0  0
 15 14  2  0  0  0  0
 17 14  1  0  0  0  0
 18 17  2  0  0  0  0
 19 18  1  0  0  0  0
 20 19  2  0  0  0  0
 20 21  1  0  0  0  0
 21 22  2  0  0  0  0
 22 17  1  0  0  0  0
 22 23  1  0  0  0  0
 23 12  1  0  0  0  0
 25 23  1  0  0  0  0
 26 27  1  0  0  0  0
 28 11  1  0  0  0  0
 29 28  1  0  0  0  0
 30 28  1  0  0  0  0
 31 30  1  0  0  0  0
 31 36  1  0  0  0  0
 32 33  1  0  0  0  0
 32 31  1  0  0  0  0
 33 34  1  0  0  0  0
 34 35  1  0  0  0  0
 36 35  1  0  0  0  0
M  END
>  <minimizedAffinity>
-7.56024504

$$$$
