
 OpenBabel09132204463D

 36 40  0  0  1  0  0  0  0  0999 V2000
    9.1190    4.0060   -0.0460 O   0  0  0  0  0  0  0  0  0  0  0  0
    9.5900    3.9460    1.0960 C   0  0  0  0  0  0  0  0  0  0  0  0
   10.1800    5.1870    1.6870 C   0  0  0  0  0  0  0  0  0  0  0  0
   10.7700    5.1140    2.8950 C   0  0  0  0  0  0  0  0  0  0  0  0
   10.8050    3.8610    3.6780 C   0  0  0  0  0  0  0  0  0  0  0  0
   11.3460    3.7900    4.9760 C   0  0  0  0  0  3  0  0  0  0  0  0
   11.3970    2.5810    5.6720 C   0  0  0  0  0  3  0  0  0  0  0  0
   10.9000    1.4230    5.0890 C   0  0  0  0  0  3  0  0  0  0  0  0
   10.3240    1.4820    3.8210 C   0  0  0  0  0  3  0  0  0  0  0  0
   10.2500    2.6960    3.1180 C   0  0  0  0  0  0  0  0  0  0  0  0
    9.6060    2.7800    1.8530 N   0  0  0  0  0  0  0  0  0  0  0  0
   10.0800    6.4530    0.8630 C   0  0  1  0  0  3  0  0  0  0  0  0
   10.1090    6.3960   -0.4460 N   0  0  0  0  0  0  0  0  0  0  0  0
   10.0160    7.6350   -1.4610 S   0  0  0  0  0  0  0  0  0  0  0  0
   11.2850    7.7850   -2.1450 O   0  0  0  0  0  0  0  0  0  0  0  0
    8.7940    7.5210   -2.2320 O   0  0  0  0  0  0  0  0  0  0  0  0
    9.8290    9.0850   -0.4790 C   0  0  0  0  0  0  0  0  0  0  0  0
    9.6990   10.3290   -1.1090 C   0  0  0  0  0  3  0  0  0  0  0  0
    9.5500   11.4710   -0.3280 C   0  0  0  0  0  3  0  0  0  0  0  0
    9.5340   11.3610    1.0630 C   0  0  0  0  0  3  0  0  0  0  0  0
    9.6650   10.1090    1.6730 C   0  0  0  0  0  3  0  0  0  0  0  0
    9.8130    8.9520    0.9030 C   0  0  0  0  0  0  0  0  0  0  0  0
    9.9420    7.7050    1.5020 N   0  0  0  0  0  0  0  0  0  0  0  0
   10.2100    5.4840   -0.8790 H   0  0  0  0  0  0  0  0  0  0  0  0
    9.9140    7.6610    2.5210 H   0  0  0  0  0  0  0  0  0  0  0  0
   11.4130    6.2220    3.4300 O   0  0  0  0  0  0  0  0  0  0  0  0
   12.1620    5.9150    3.9750 H   0  0  0  0  0  0  0  0  0  0  0  0
    9.0130    1.6120    1.2890 N   0  0  0  0  0  0  0  0  0  0  0  0
    8.3220    1.2610    1.9600 H   0  0  0  0  0  0  0  0  0  0  0  0
    9.9980    0.5530    1.0040 C   0  0  0  0  0  2  0  0  0  0  0  0
   10.1440    0.1460   -0.4780 C   0  0  0  0  0  3  0  0  0  0  0  0
   11.0810    1.0870   -1.2550 C   0  0  0  0  0  2  0  0  0  0  0  0
   11.2600    0.6360   -2.7040 C   0  0  0  0  0  2  0  0  0  0  0  0
   11.7510   -0.8050   -2.7890 C   0  0  0  0  0  2  0  0  0  0  0  0
   10.8430   -1.7520   -2.0140 C   0  0  0  0  0  2  0  0  0  0  0  0
   10.6640   -1.3010   -0.5670 C   0  0  0  0  0  2  0  0  0  0  0  0
  1  2  2  0  0  0  0
  2  3  1  0  0  0  0
  2 11  1  0  0  0  0
  3  4  2  0  0  0  0
  4 26  1  0  0  0  0
  4  5  1  0  0  0  0
  5  6  1  0  0  0  0
  6  7  2  0  0  0  0
  8  7  1  0  0  0  0
  9  8  2  0  0  0  0
 10  5  2  0  0  0  0
 10  9  1  0  0  0  0
 11 10  1  0  0  0  0
 12 23  1  0  0  0  0
 12  3  1  6  0  0  0
 13 12  1  0  0  0  0
 14 17  1  0  0  0  0
 14 13  1  0  0  0  0
 15 14  2  0  0  0  0
 16 14  2  0  0  0  0
 17 22  1  0  0  0  0
 18 17  2  0  0  0  0
 18 19  1  0  0  0  0
 19 20  2  0  0  0  0
 20 21  1  0  0  0  0
 22 23  1  0  0  0  0
 22 21  2  0  0  0  0
 23 25  1  0  0  0  0
 24 13  1  0  0  0  0
 26 27  1  0  0  0  0
 28 11  1  0  0  0  0
 28 29  1  0  0  0  0
 30 28  1  0  0  0  0
 31 30  1  0  0  0  0
 32 31  1  0  0  0  0
 33 32  1  0  0  0  0
 34 33  1  0  0  0  0
 34 35  1  0  0  0  0
 35 36  1  0  0  0  0
 36 31  1  0  0  0  0
M  END
>  <minimizedAffinity>
-6.82939816

$$$$
