
 OpenBabel09122222393D

 36 40  0  0  0  0  0  0  0  0999 V2000
    4.2670   -9.9390    3.7660 C   0  0  0  0  0  0  0  0  0  0  0  0
    5.3810   -9.5350    3.0250 C   0  0  0  0  0  3  0  0  0  0  0  0
    5.6860   -8.1780    2.8680 C   0  0  0  0  0  3  0  0  0  0  0  0
    4.8380   -7.2510    3.4960 C   0  0  0  0  0  0  0  0  0  0  0  0
    3.7520   -7.6460    4.2640 C   0  0  0  0  0  0  0  0  0  0  0  0
    3.4510   -9.0050    4.4160 C   0  0  0  0  0  3  0  0  0  0  0  0
    3.1090   -6.5650    4.7880 N   0  0  0  0  0  0  0  0  0  0  0  0
    3.7930   -5.4900    4.4100 C   0  0  0  0  0  0  0  0  0  0  0  0
    4.8090   -5.8620    3.5400 N   0  0  0  0  0  0  0  0  0  0  0  0
    3.4500   -4.1390    4.8750 C   0  0  0  0  0  0  0  0  0  0  0  0
    2.3990   -3.4390    4.2860 C   0  0  0  0  0  3  0  0  0  0  0  0
    2.0650   -2.1790    4.7790 C   0  0  0  0  0  3  0  0  0  0  0  0
    2.7800   -1.6590    5.8490 C   0  0  0  0  0  3  0  0  0  0  0  0
    3.8000   -2.4260    6.3860 C   0  0  0  0  0  3  0  0  0  0  0  0
    4.1490   -3.6480    5.9240 N   0  0  0  0  0  0  0  0  0  0  0  0
    5.6770   -5.0290    2.7080 C   0  0  0  0  0  3  0  0  0  0  0  0
    6.6390   -4.1070    3.4800 C   0  0  0  0  0  2  0  0  0  0  0  0
    7.4270   -3.2050    2.5310 C   0  0  0  0  0  2  0  0  0  0  0  0
    8.1370   -4.0150    1.4490 C   0  0  0  0  0  2  0  0  0  0  0  0
    7.1560   -4.8740    0.6560 C   0  0  0  0  0  2  0  0  0  0  0  0
    6.3480   -5.8010    1.5610 C   0  0  0  0  0  2  0  0  0  0  0  0
    2.7670  -11.8720    3.5060 N   0  0  0  0  0  0  0  0  0  0  0  0
    3.9900  -11.3850    3.8870 C   0  0  0  0  0  0  0  0  0  0  0  0
    4.8670  -12.1380    4.2980 O   0  0  0  0  0  0  0  0  0  0  0  0
    2.6520  -12.8640    3.6690 H   0  0  0  0  0  0  0  0  0  0  0  0
    1.6930  -11.1600    2.8430 C   0  0  0  0  0  2  0  0  0  0  0  0
   -1.5650  -10.3120    5.5360 C   0  0  0  0  0  0  0  0  0  0  0  0
   -1.0370  -11.6020    5.4640 C   0  0  0  0  0  3  0  0  0  0  0  0
    0.0220  -11.8740    4.5960 C   0  0  0  0  0  3  0  0  0  0  0  0
    0.5690  -10.8560    3.7980 C   0  0  0  0  0  0  0  0  0  0  0  0
    0.0460   -9.5590    3.9020 C   0  0  0  0  0  3  0  0  0  0  0  0
   -0.9960   -9.2760    4.7880 C   0  0  0  0  0  0  0  0  0  0  0  0
   -3.8090  -10.6770    5.8060 C   0  0  0  0  0  1  0  0  0  0  0  0
   -2.6260  -10.1150    6.3790 O   0  0  0  0  0  0  0  0  0  0  0  0
   -1.4190   -7.9730    4.8060 O   0  0  0  0  0  0  0  0  0  0  0  0
   -0.5030   -7.0910    5.4560 C   0  0  0  0  0  1  0  0  0  0  0  0
  1 23  1  0  0  0  0
  1  6  1  0  0  0  0
  2  1  2  0  0  0  0
  3  2  1  0  0  0  0
  3  4  2  0  0  0  0
  4  9  1  0  0  0  0
  4  5  1  0  0  0  0
  5  6  2  0  0  0  0
  5  7  1  0  0  0  0
  8  7  2  0  0  0  0
  8 10  1  0  0  0  0
  9  8  1  0  0  0  0
 10 15  1  0  0  0  0
 11 12  1  0  0  0  0
 11 10  2  0  0  0  0
 12 13  2  0  0  0  0
 13 14  1  0  0  0  0
 15 14  2  0  0  0  0
 16 17  1  0  0  0  0
 16  9  1  0  0  0  0
 18 17  1  0  0  0  0
 19 18  1  0  0  0  0
 20 19  1  0  0  0  0
 20 21  1  0  0  0  0
 21 16  1  0  0  0  0
 22 25  1  0  0  0  0
 22 23  1  0  0  0  0
 23 24  2  0  0  0  0
 26 22  1  0  0  0  0
 26 30  1  0  0  0  0
 27 34  1  0  0  0  0
 28 27  1  0  0  0  0
 29 28  2  0  0  0  0
 30 31  2  0  0  0  0
 30 29  1  0  0  0  0
 31 32  1  0  0  0  0
 32 35  1  0  0  0  0
 32 27  2  0  0  0  0
 33 34  1  0  0  0  0
 35 36  1  0  0  0  0
M  END
>  <minimizedAffinity>
-4.70051908

$$$$
