
 OpenBabel09122222393D

 36 40  0  0  0  0  0  0  0  0999 V2000
    2.6020   -9.8070    5.0430 C   0  0  0  0  0  0  0  0  0  0  0  0
    2.1630   -8.6050    5.6050 C   0  0  0  0  0  3  0  0  0  0  0  0
    2.6840   -7.3800    5.1750 C   0  0  0  0  0  3  0  0  0  0  0  0
    3.6470   -7.4120    4.1530 C   0  0  0  0  0  0  0  0  0  0  0  0
    4.0600   -8.5990    3.5650 C   0  0  0  0  0  0  0  0  0  0  0  0
    3.5370   -9.8230    4.0010 C   0  0  0  0  0  3  0  0  0  0  0  0
    4.9750   -8.3620    2.5830 N   0  0  0  0  0  0  0  0  0  0  0  0
    5.1160   -7.0440    2.4980 C   0  0  0  0  0  0  0  0  0  0  0  0
    4.3860   -6.4280    3.5070 N   0  0  0  0  0  0  0  0  0  0  0  0
    5.9530   -6.4090    1.4710 C   0  0  0  0  0  0  0  0  0  0  0  0
    5.5130   -6.3360    0.1510 C   0  0  0  0  0  3  0  0  0  0  0  0
    6.3060   -5.6870   -0.7920 C   0  0  0  0  0  3  0  0  0  0  0  0
    7.5070   -5.1200   -0.3910 C   0  0  0  0  0  3  0  0  0  0  0  0
    7.8650   -5.2240    0.9420 C   0  0  0  0  0  3  0  0  0  0  0  0
    7.1180   -5.8530    1.8780 N   0  0  0  0  0  0  0  0  0  0  0  0
    4.3960   -5.0330    3.9480 C   0  0  0  0  0  3  0  0  0  0  0  0
    3.0760   -4.2680    3.7350 C   0  0  0  0  0  2  0  0  0  0  0  0
    3.2160   -2.7980    4.1290 C   0  0  0  0  0  2  0  0  0  0  0  0
    3.7560   -2.6470    5.5480 C   0  0  0  0  0  2  0  0  0  0  0  0
    5.0950   -3.3600    5.7180 C   0  0  0  0  0  2  0  0  0  0  0  0
    5.0050   -4.8390    5.3440 C   0  0  0  0  0  2  0  0  0  0  0  0
    0.8030  -11.4850    5.0810 N   0  0  0  0  0  0  0  0  0  0  0  0
    2.0240  -11.0710    5.5460 C   0  0  0  0  0  0  0  0  0  0  0  0
    2.6560  -11.7510    6.3470 O   0  0  0  0  0  0  0  0  0  0  0  0
    0.4660  -12.3350    5.5170 H   0  0  0  0  0  0  0  0  0  0  0  0
    0.0120  -10.9030    4.0170 C   0  0  0  0  0  2  0  0  0  0  0  0
   -3.1310   -8.4410    5.6450 C   0  0  0  0  0  0  0  0  0  0  0  0
   -2.0450   -7.8490    4.9970 C   0  0  0  0  0  3  0  0  0  0  0  0
   -1.0310   -8.6480    4.4660 C   0  0  0  0  0  3  0  0  0  0  0  0
   -1.0980  -10.0460    4.5680 C   0  0  0  0  0  0  0  0  0  0  0  0
   -2.2080  -10.6280    5.1970 C   0  0  0  0  0  3  0  0  0  0  0  0
   -3.2390   -9.8340    5.7080 C   0  0  0  0  0  0  0  0  0  0  0  0
   -3.5260   -6.2940    6.3370 C   0  0  0  0  0  1  0  0  0  0  0  0
   -4.0750   -7.6040    6.1780 O   0  0  0  0  0  0  0  0  0  0  0  0
   -4.2730  -10.5140    6.2950 O   0  0  0  0  0  0  0  0  0  0  0  0
   -4.8200  -11.5360    5.4620 C   0  0  0  0  0  1  0  0  0  0  0  0
  1 23  1  0  0  0  0
  1  2  1  0  0  0  0
  3  2  2  0  0  0  0
  4  3  1  0  0  0  0
  5  6  1  0  0  0  0
  5  4  2  0  0  0  0
  6  1  2  0  0  0  0
  7  5  1  0  0  0  0
  8  7  2  0  0  0  0
  8  9  1  0  0  0  0
  9 16  1  0  0  0  0
  9  4  1  0  0  0  0
 10 15  1  0  0  0  0
 10  8  1  0  0  0  0
 11 10  2  0  0  0  0
 12 13  2  0  0  0  0
 12 11  1  0  0  0  0
 13 14  1  0  0  0  0
 14 15  2  0  0  0  0
 16 21  1  0  0  0  0
 17 16  1  0  0  0  0
 17 18  1  0  0  0  0
 18 19  1  0  0  0  0
 19 20  1  0  0  0  0
 21 20  1  0  0  0  0
 22 25  1  0  0  0  0
 22 23  1  0  0  0  0
 23 24  2  0  0  0  0
 26 30  1  0  0  0  0
 26 22  1  0  0  0  0
 27 32  1  0  0  0  0
 27 34  1  0  0  0  0
 28 27  2  0  0  0  0
 29 30  2  0  0  0  0
 29 28  1  0  0  0  0
 30 31  1  0  0  0  0
 31 32  2  0  0  0  0
 32 35  1  0  0  0  0
 34 33  1  0  0  0  0
 36 35  1  0  0  0  0
M  END
>  <minimizedAffinity>
-7.59673119

$$$$
