
 OpenBabel09122222393D

 36 40  0  0  0  0  0  0  0  0999 V2000
    3.4410   -9.6280    1.7840 C   0  0  0  0  0  0  0  0  0  0  0  0
    4.7250   -9.4730    1.2530 C   0  0  0  0  0  3  0  0  0  0  0  0
    5.4970   -8.3470    1.5580 C   0  0  0  0  0  3  0  0  0  0  0  0
    4.9350   -7.3970    2.4260 C   0  0  0  0  0  0  0  0  0  0  0  0
    3.6770   -7.5620    2.9870 C   0  0  0  0  0  0  0  0  0  0  0  0
    2.9080   -8.6900    2.6760 C   0  0  0  0  0  3  0  0  0  0  0  0
    3.3730   -6.5210    3.8130 N   0  0  0  0  0  0  0  0  0  0  0  0
    4.4330   -5.7210    3.8300 C   0  0  0  0  0  0  0  0  0  0  0  0
    5.3790   -6.1760    2.9200 N   0  0  0  0  0  0  0  0  0  0  0  0
    4.5090   -4.5380    4.6990 C   0  0  0  0  0  0  0  0  0  0  0  0
    3.6020   -3.4920    4.5440 C   0  0  0  0  0  3  0  0  0  0  0  0
    3.6670   -2.4050    5.4120 C   0  0  0  0  0  3  0  0  0  0  0  0
    4.6270   -2.3960    6.4150 C   0  0  0  0  0  3  0  0  0  0  0  0
    5.4810   -3.4820    6.5100 C   0  0  0  0  0  3  0  0  0  0  0  0
    5.4440   -4.5470    5.6770 N   0  0  0  0  0  0  0  0  0  0  0  0
    6.5960   -5.5240    2.4350 C   0  0  0  0  0  3  0  0  0  0  0  0
    6.9370   -5.7890    0.9570 C   0  0  0  0  0  2  0  0  0  0  0  0
    8.2730   -5.1540    0.5720 C   0  0  0  0  0  2  0  0  0  0  0  0
    8.3100   -3.6700    0.9230 C   0  0  0  0  0  2  0  0  0  0  0  0
    8.0310   -3.4360    2.4050 C   0  0  0  0  0  2  0  0  0  0  0  0
    6.6990   -4.0460    2.8390 C   0  0  0  0  0  2  0  0  0  0  0  0
    2.3200  -11.7320    2.3910 N   0  0  0  0  0  0  0  0  0  0  0  0
    2.6690  -10.8330    1.4180 C   0  0  0  0  0  0  0  0  0  0  0  0
    2.3210  -10.9990    0.2530 O   0  0  0  0  0  0  0  0  0  0  0  0
    1.8350  -12.5490    2.0400 H   0  0  0  0  0  0  0  0  0  0  0  0
    2.4930  -11.6050    3.8240 C   0  0  0  0  0  2  0  0  0  0  0  0
   -1.0210   -9.9860    5.7250 C   0  0  0  0  0  0  0  0  0  0  0  0
    0.2470   -9.5720    6.1350 C   0  0  0  0  0  3  0  0  0  0  0  0
    1.3840  -10.0930    5.5150 C   0  0  0  0  0  3  0  0  0  0  0  0
    1.2640  -11.0250    4.4720 C   0  0  0  0  0  0  0  0  0  0  0  0
   -0.0180  -11.4110    4.0530 C   0  0  0  0  0  3  0  0  0  0  0  0
   -1.1600  -10.8730    4.6530 C   0  0  0  0  0  0  0  0  0  0  0  0
   -1.9440   -8.0540    6.5360 C   0  0  0  0  0  1  0  0  0  0  0  0
   -2.0970   -9.4680    6.3960 O   0  0  0  0  0  0  0  0  0  0  0  0
   -2.3550  -11.3210    4.1550 O   0  0  0  0  0  0  0  0  0  0  0  0
   -2.9380  -10.4320    3.2020 C   0  0  0  0  0  1  0  0  0  0  0  0
  1  6  1  0  0  0  0
  2  3  1  0  0  0  0
  2  1  2  0  0  0  0
  3  4  2  0  0  0  0
  4  9  1  0  0  0  0
  4  5  1  0  0  0  0
  5  7  1  0  0  0  0
  6  5  2  0  0  0  0
  7  8  2  0  0  0  0
  8 10  1  0  0  0  0
  9  8  1  0  0  0  0
 10 15  1  0  0  0  0
 11 10  2  0  0  0  0
 11 12  1  0  0  0  0
 12 13  2  0  0  0  0
 13 14  1  0  0  0  0
 15 14  2  0  0  0  0
 16 21  1  0  0  0  0
 16  9  1  0  0  0  0
 17 16  1  0  0  0  0
 18 19  1  0  0  0  0
 18 17  1  0  0  0  0
 19 20  1  0  0  0  0
 20 21  1  0  0  0  0
 22 26  1  0  0  0  0
 23  1  1  0  0  0  0
 23 22  1  0  0  0  0
 24 23  2  0  0  0  0
 25 22  1  0  0  0  0
 26 30  1  0  0  0  0
 27 28  1  0  0  0  0
 27 34  1  0  0  0  0
 29 28  2  0  0  0  0
 30 29  1  0  0  0  0
 31 30  2  0  0  0  0
 31 32  1  0  0  0  0
 32 27  2  0  0  0  0
 34 33  1  0  0  0  0
 35 32  1  0  0  0  0
 36 35  1  0  0  0  0
M  END
>  <minimizedAffinity>
-4.60494328

$$$$
