
 OpenBabel09122222393D

 36 40  0  0  0  0  0  0  0  0999 V2000
    2.3010  -10.3590    2.3130 C   0  0  0  0  0  0  0  0  0  0  0  0
    3.3220  -10.2160    1.3690 C   0  0  0  0  0  3  0  0  0  0  0  0
    4.0990   -9.0530    1.3230 C   0  0  0  0  0  3  0  0  0  0  0  0
    3.8190   -8.0540    2.2690 C   0  0  0  0  0  0  0  0  0  0  0  0
    2.8320   -8.2040    3.2330 C   0  0  0  0  0  0  0  0  0  0  0  0
    2.0570   -9.3690    3.2730 C   0  0  0  0  0  3  0  0  0  0  0  0
    2.7770   -7.1120    4.0460 N   0  0  0  0  0  0  0  0  0  0  0  0
    3.7430   -6.2890    3.6520 C   0  0  0  0  0  0  0  0  0  0  0  0
    4.3470   -6.7900    2.5060 N   0  0  0  0  0  0  0  0  0  0  0  0
    4.0520   -5.0430    4.3680 C   0  0  0  0  0  0  0  0  0  0  0  0
    3.1610   -3.9730    4.3330 C   0  0  0  0  0  3  0  0  0  0  0  0
    3.4580   -2.8220    5.0600 C   0  0  0  0  0  3  0  0  0  0  0  0
    4.6260   -2.7750    5.8070 C   0  0  0  0  0  3  0  0  0  0  0  0
    5.4510   -3.8880    5.7990 C   0  0  0  0  0  3  0  0  0  0  0  0
    5.1900   -5.0160    5.0990 N   0  0  0  0  0  0  0  0  0  0  0  0
    5.2980   -6.1490    1.5970 C   0  0  0  0  0  3  0  0  0  0  0  0
    6.7700   -6.5580    1.7920 C   0  0  0  0  0  2  0  0  0  0  0  0
    7.6940   -5.7630    0.8710 C   0  0  0  0  0  2  0  0  0  0  0  0
    7.2500   -5.8580   -0.5870 C   0  0  0  0  0  2  0  0  0  0  0  0
    5.8090   -5.3890   -0.7660 C   0  0  0  0  0  2  0  0  0  0  0  0
    4.8410   -6.1610    0.1300 C   0  0  0  0  0  2  0  0  0  0  0  0
    1.0610  -12.1270    3.4930 N   0  0  0  0  0  0  0  0  0  0  0  0
    1.5070  -11.6050    2.3070 C   0  0  0  0  0  0  0  0  0  0  0  0
    1.2280  -12.1400    1.2390 O   0  0  0  0  0  0  0  0  0  0  0  0
    0.5680  -13.0060    3.3940 H   0  0  0  0  0  0  0  0  0  0  0  0
    1.1470  -11.5360    4.8130 C   0  0  0  0  0  2  0  0  0  0  0  0
   -2.4240   -9.3310    5.8010 C   0  0  0  0  0  0  0  0  0  0  0  0
   -1.2230   -9.0430    6.4510 C   0  0  0  0  0  3  0  0  0  0  0  0
   -0.0660   -9.7530    6.1270 C   0  0  0  0  0  3  0  0  0  0  0  0
   -0.0970  -10.7530    5.1410 C   0  0  0  0  0  0  0  0  0  0  0  0
   -1.3050  -11.0130    4.4770 C   0  0  0  0  0  3  0  0  0  0  0  0
   -2.4600  -10.2860    4.7810 C   0  0  0  0  0  0  0  0  0  0  0  0
   -3.3920   -7.2570    5.8040 C   0  0  0  0  0  1  0  0  0  0  0  0
   -3.5320   -8.6260    6.1890 O   0  0  0  0  0  0  0  0  0  0  0  0
   -3.5760  -10.6260    4.0630 O   0  0  0  0  0  0  0  0  0  0  0  0
   -4.2980  -11.7210    4.6260 C   0  0  0  0  0  1  0  0  0  0  0  0
  1  6  1  0  0  0  0
  2  1  2  0  0  0  0
  3  2  1  0  0  0  0
  3  4  2  0  0  0  0
  4  9  1  0  0  0  0
  4  5  1  0  0  0  0
  5  6  2  0  0  0  0
  5  7  1  0  0  0  0
  8  7  2  0  0  0  0
  8 10  1  0  0  0  0
  9  8  1  0  0  0  0
 10 15  1  0  0  0  0
 11 10  2  0  0  0  0
 11 12  1  0  0  0  0
 12 13  2  0  0  0  0
 14 13  1  0  0  0  0
 15 14  2  0  0  0  0
 16 17  1  0  0  0  0
 16  9  1  0  0  0  0
 18 17  1  0  0  0  0
 19 18  1  0  0  0  0
 20 19  1  0  0  0  0
 20 21  1  0  0  0  0
 21 16  1  0  0  0  0
 22 26  1  0  0  0  0
 23  1  1  0  0  0  0
 23 22  1  0  0  0  0
 24 23  2  0  0  0  0
 25 22  1  0  0  0  0
 26 30  1  0  0  0  0
 27 34  1  0  0  0  0
 27 28  1  0  0  0  0
 29 28  2  0  0  0  0
 30 29  1  0  0  0  0
 31 32  1  0  0  0  0
 31 30  2  0  0  0  0
 32 27  2  0  0  0  0
 33 34  1  0  0  0  0
 35 36  1  0  0  0  0
 35 32  1  0  0  0  0
M  END
>  <minimizedAffinity>
-6.11357975

$$$$
