
 OpenBabel09122222393D

 36 40  0  0  0  0  0  0  0  0999 V2000
    3.2770   -9.9940    5.1790 C   0  0  0  0  0  0  0  0  0  0  0  0
    2.7200   -8.8230    5.7020 C   0  0  0  0  0  3  0  0  0  0  0  0
    3.0880   -7.5690    5.2030 C   0  0  0  0  0  3  0  0  0  0  0  0
    4.0220   -7.5410    4.1550 C   0  0  0  0  0  0  0  0  0  0  0  0
    4.5510   -8.7000    3.6060 C   0  0  0  0  0  0  0  0  0  0  0  0
    4.1800   -9.9530    4.1100 C   0  0  0  0  0  3  0  0  0  0  0  0
    5.4080   -8.4080    2.5870 N   0  0  0  0  0  0  0  0  0  0  0  0
    5.3970   -7.0870    2.4420 C   0  0  0  0  0  0  0  0  0  0  0  0
    4.6280   -6.5110    3.4450 N   0  0  0  0  0  0  0  0  0  0  0  0
    6.1310   -6.4110    1.3620 C   0  0  0  0  0  0  0  0  0  0  0  0
    5.6000   -6.3620    0.0750 C   0  0  0  0  0  3  0  0  0  0  0  0
    6.2950   -5.6730   -0.9170 C   0  0  0  0  0  3  0  0  0  0  0  0
    7.4900   -5.0450   -0.5950 C   0  0  0  0  0  3  0  0  0  0  0  0
    7.9410   -5.1310    0.7120 C   0  0  0  0  0  3  0  0  0  0  0  0
    7.2900   -5.7970    1.6930 N   0  0  0  0  0  0  0  0  0  0  0  0
    4.4920   -5.1050    3.8250 C   0  0  0  0  0  3  0  0  0  0  0  0
    3.0680   -4.5300    3.7160 C   0  0  0  0  0  2  0  0  0  0  0  0
    3.0450   -3.0360    4.0330 C   0  0  0  0  0  2  0  0  0  0  0  0
    3.6930   -2.7390    5.3830 C   0  0  0  0  0  2  0  0  0  0  0  0
    5.1250   -3.2620    5.4450 C   0  0  0  0  0  2  0  0  0  0  0  0
    5.2000   -4.7580    5.1430 C   0  0  0  0  0  2  0  0  0  0  0  0
    1.6660  -11.8440    5.3660 N   0  0  0  0  0  0  0  0  0  0  0  0
    2.8580  -11.2890    5.7520 C   0  0  0  0  0  0  0  0  0  0  0  0
    3.5950  -11.8690    6.5420 O   0  0  0  0  0  0  0  0  0  0  0  0
    1.4400  -12.7060    5.8460 H   0  0  0  0  0  0  0  0  0  0  0  0
    0.7680  -11.3870    4.3250 C   0  0  0  0  0  2  0  0  0  0  0  0
   -2.9280   -9.8690    5.9440 C   0  0  0  0  0  0  0  0  0  0  0  0
   -2.5330  -11.1800    6.2160 C   0  0  0  0  0  3  0  0  0  0  0  0
   -1.3340  -11.6690    5.6960 C   0  0  0  0  0  3  0  0  0  0  0  0
   -0.5120  -10.8480    4.9060 C   0  0  0  0  0  0  0  0  0  0  0  0
   -0.9090   -9.5250    4.6640 C   0  0  0  0  0  3  0  0  0  0  0  0
   -2.0970   -9.0230    5.2040 C   0  0  0  0  0  0  0  0  0  0  0  0
   -5.0230  -10.5730    6.5420 C   0  0  0  0  0  1  0  0  0  0  0  0
   -4.1330   -9.4590    6.4510 O   0  0  0  0  0  0  0  0  0  0  0  0
   -2.3760   -7.7160    4.9030 O   0  0  0  0  0  0  0  0  0  0  0  0
   -1.3180   -6.8200    5.2460 C   0  0  0  0  0  1  0  0  0  0  0  0
  1  2  1  0  0  0  0
  1 23  1  0  0  0  0
  3  2  2  0  0  0  0
  4  3  1  0  0  0  0
  5  6  1  0  0  0  0
  5  4  2  0  0  0  0
  6  1  2  0  0  0  0
  7  5  1  0  0  0  0
  8  7  2  0  0  0  0
  8  9  1  0  0  0  0
  9 16  1  0  0  0  0
  9  4  1  0  0  0  0
 10 15  1  0  0  0  0
 10  8  1  0  0  0  0
 11 10  2  0  0  0  0
 12 13  2  0  0  0  0
 12 11  1  0  0  0  0
 13 14  1  0  0  0  0
 14 15  2  0  0  0  0
 16 21  1  0  0  0  0
 17 16  1  0  0  0  0
 17 18  1  0  0  0  0
 18 19  1  0  0  0  0
 19 20  1  0  0  0  0
 21 20  1  0  0  0  0
 22 23  1  0  0  0  0
 22 25  1  0  0  0  0
 23 24  2  0  0  0  0
 26 30  1  0  0  0  0
 26 22  1  0  0  0  0
 27 28  1  0  0  0  0
 27 34  1  0  0  0  0
 29 28  2  0  0  0  0
 30 29  1  0  0  0  0
 31 30  2  0  0  0  0
 31 32  1  0  0  0  0
 32 27  2  0  0  0  0
 34 33  1  0  0  0  0
 35 32  1  0  0  0  0
 35 36  1  0  0  0  0
M  END
>  <minimizedAffinity>
-6.79009056

$$$$
