
 OpenBabel09122219383D

 36 40  0  0  0  0  0  0  0  0999 V2000
    2.6020   -9.8070    5.0430 C   0  0  0  0  0  0  0  0  0  0  0  0
    2.1630   -8.6050    5.6050 C   0  0  0  0  0  3  0  0  0  0  0  0
    2.6840   -7.3800    5.1750 C   0  0  0  0  0  3  0  0  0  0  0  0
    3.6470   -7.4120    4.1530 C   0  0  0  0  0  0  0  0  0  0  0  0
    4.0600   -8.5990    3.5650 C   0  0  0  0  0  0  0  0  0  0  0  0
    3.5370   -9.8230    4.0010 C   0  0  0  0  0  3  0  0  0  0  0  0
    4.9750   -8.3620    2.5830 N   0  0  0  0  0  0  0  0  0  0  0  0
    5.1160   -7.0440    2.4980 C   0  0  0  0  0  0  0  0  0  0  0  0
    4.3860   -6.4280    3.5070 N   0  0  0  0  0  0  0  0  0  0  0  0
    5.9530   -6.4090    1.4710 C   0  0  0  0  0  0  0  0  0  0  0  0
    5.5130   -6.3360    0.1510 C   0  0  0  0  0  3  0  0  0  0  0  0
    6.3060   -5.6870   -0.7920 C   0  0  0  0  0  3  0  0  0  0  0  0
    7.5070   -5.1200   -0.3910 C   0  0  0  0  0  3  0  0  0  0  0  0
    7.8650   -5.2240    0.9420 C   0  0  0  0  0  3  0  0  0  0  0  0
    7.1180   -5.8530    1.8780 N   0  0  0  0  0  0  0  0  0  0  0  0
    4.3960   -5.0330    3.9480 C   0  0  0  0  0  3  0  0  0  0  0  0
    3.0760   -4.2680    3.7350 C   0  0  0  0  0  2  0  0  0  0  0  0
    3.2160   -2.7980    4.1290 C   0  0  0  0  0  2  0  0  0  0  0  0
    3.7560   -2.6470    5.5480 C   0  0  0  0  0  2  0  0  0  0  0  0
    5.0950   -3.3600    5.7180 C   0  0  0  0  0  2  0  0  0  0  0  0
    5.0050   -4.8390    5.3440 C   0  0  0  0  0  2  0  0  0  0  0  0
    0.8030  -11.4850    5.0810 N   0  0  0  0  0  0  0  0  0  0  0  0
    2.0240  -11.0710    5.5460 C   0  0  0  0  0  0  0  0  0  0  0  0
    2.6560  -11.7510    6.3470 O   0  0  0  0  0  0  0  0  0  0  0  0
    0.4660  -12.3350    5.5170 H   0  0  0  0  0  0  0  0  0  0  0  0
    0.0120  -10.9030    4.0170 C   0  0  0  0  0  2  0  0  0  0  0  0
   -3.1310   -8.4410    5.6450 C   0  0  0  0  0  0  0  0  0  0  0  0
   -2.0450   -7.8490    4.9970 C   0  0  0  0  0  3  0  0  0  0  0  0
   -1.0310   -8.6480    4.4660 C   0  0  0  0  0  3  0  0  0  0  0  0
   -1.0980  -10.0460    4.5680 C   0  0  0  0  0  0  0  0  0  0  0  0
   -2.2080  -10.6280    5.1970 C   0  0  0  0  0  3  0  0  0  0  0  0
   -3.2390   -9.8340    5.7080 C   0  0  0  0  0  0  0  0  0  0  0  0
   -3.5260   -6.2940    6.3370 C   0  0  0  0  0  1  0  0  0  0  0  0
   -4.0750   -7.6040    6.1780 O   0  0  0  0  0  0  0  0  0  0  0  0
   -4.2730  -10.5140    6.2950 O   0  0  0  0  0  0  0  0  0  0  0  0
   -4.8200  -11.5360    5.4620 C   0  0  0  0  0  1  0  0  0  0  0  0
  1 23  1  0  0  0  0
  1  2  1  0  0  0  0
  3  2  2  0  0  0  0
  4  3  1  0  0  0  0
  5  6  1  0  0  0  0
  5  4  2  0  0  0  0
  6  1  2  0  0  0  0
  7  5  1  0  0  0  0
  8  7  2  0  0  0  0
  8  9  1  0  0  0  0
  9 16  1  0  0  0  0
  9  4  1  0  0  0  0
 10 15  1  0  0  0  0
 10  8  1  0  0  0  0
 11 10  2  0  0  0  0
 12 13  2  0  0  0  0
 12 11  1  0  0  0  0
 13 14  1  0  0  0  0
 14 15  2  0  0  0  0
 16 21  1  0  0  0  0
 17 16  1  0  0  0  0
 17 18  1  0  0  0  0
 18 19  1  0  0  0  0
 19 20  1  0  0  0  0
 21 20  1  0  0  0  0
 22 25  1  0  0  0  0
 22 23  1  0  0  0  0
 23 24  2  0  0  0  0
 26 30  1  0  0  0  0
 26 22  1  0  0  0  0
 27 32  1  0  0  0  0
 27 34  1  0  0  0  0
 28 27  2  0  0  0  0
 29 30  2  0  0  0  0
 29 28  1  0  0  0  0
 30 31  1  0  0  0  0
 31 32  2  0  0  0  0
 32 35  1  0  0  0  0
 34 33  1  0  0  0  0
 36 35  1  0  0  0  0
M  END
>  <minimizedAffinity>
-7.59673119

$$$$

 OpenBabel09122219383D

 36 40  0  0  0  0  0  0  0  0999 V2000
    3.2770   -9.9940    5.1790 C   0  0  0  0  0  0  0  0  0  0  0  0
    2.7200   -8.8230    5.7020 C   0  0  0  0  0  3  0  0  0  0  0  0
    3.0880   -7.5690    5.2030 C   0  0  0  0  0  3  0  0  0  0  0  0
    4.0220   -7.5410    4.1550 C   0  0  0  0  0  0  0  0  0  0  0  0
    4.5510   -8.7000    3.6060 C   0  0  0  0  0  0  0  0  0  0  0  0
    4.1800   -9.9530    4.1100 C   0  0  0  0  0  3  0  0  0  0  0  0
    5.4080   -8.4080    2.5870 N   0  0  0  0  0  0  0  0  0  0  0  0
    5.3970   -7.0870    2.4420 C   0  0  0  0  0  0  0  0  0  0  0  0
    4.6280   -6.5110    3.4450 N   0  0  0  0  0  0  0  0  0  0  0  0
    6.1310   -6.4110    1.3620 C   0  0  0  0  0  0  0  0  0  0  0  0
    5.6000   -6.3620    0.0750 C   0  0  0  0  0  3  0  0  0  0  0  0
    6.2950   -5.6730   -0.9170 C   0  0  0  0  0  3  0  0  0  0  0  0
    7.4900   -5.0450   -0.5950 C   0  0  0  0  0  3  0  0  0  0  0  0
    7.9410   -5.1310    0.7120 C   0  0  0  0  0  3  0  0  0  0  0  0
    7.2900   -5.7970    1.6930 N   0  0  0  0  0  0  0  0  0  0  0  0
    4.4920   -5.1050    3.8250 C   0  0  0  0  0  3  0  0  0  0  0  0
    3.0680   -4.5300    3.7160 C   0  0  0  0  0  2  0  0  0  0  0  0
    3.0450   -3.0360    4.0330 C   0  0  0  0  0  2  0  0  0  0  0  0
    3.6930   -2.7390    5.3830 C   0  0  0  0  0  2  0  0  0  0  0  0
    5.1250   -3.2620    5.4450 C   0  0  0  0  0  2  0  0  0  0  0  0
    5.2000   -4.7580    5.1430 C   0  0  0  0  0  2  0  0  0  0  0  0
    1.6660  -11.8440    5.3660 N   0  0  0  0  0  0  0  0  0  0  0  0
    2.8580  -11.2890    5.7520 C   0  0  0  0  0  0  0  0  0  0  0  0
    3.5950  -11.8690    6.5420 O   0  0  0  0  0  0  0  0  0  0  0  0
    1.4400  -12.7060    5.8460 H   0  0  0  0  0  0  0  0  0  0  0  0
    0.7680  -11.3870    4.3250 C   0  0  0  0  0  2  0  0  0  0  0  0
   -2.9280   -9.8690    5.9440 C   0  0  0  0  0  0  0  0  0  0  0  0
   -2.5330  -11.1800    6.2160 C   0  0  0  0  0  3  0  0  0  0  0  0
   -1.3340  -11.6690    5.6960 C   0  0  0  0  0  3  0  0  0  0  0  0
   -0.5120  -10.8480    4.9060 C   0  0  0  0  0  0  0  0  0  0  0  0
   -0.9090   -9.5250    4.6640 C   0  0  0  0  0  3  0  0  0  0  0  0
   -2.0970   -9.0230    5.2040 C   0  0  0  0  0  0  0  0  0  0  0  0
   -5.0230  -10.5730    6.5420 C   0  0  0  0  0  1  0  0  0  0  0  0
   -4.1330   -9.4590    6.4510 O   0  0  0  0  0  0  0  0  0  0  0  0
   -2.3760   -7.7160    4.9030 O   0  0  0  0  0  0  0  0  0  0  0  0
   -1.3180   -6.8200    5.2460 C   0  0  0  0  0  1  0  0  0  0  0  0
  1  2  1  0  0  0  0
  1 23  1  0  0  0  0
  3  2  2  0  0  0  0
  4  3  1  0  0  0  0
  5  6  1  0  0  0  0
  5  4  2  0  0  0  0
  6  1  2  0  0  0  0
  7  5  1  0  0  0  0
  8  7  2  0  0  0  0
  8  9  1  0  0  0  0
  9 16  1  0  0  0  0
  9  4  1  0  0  0  0
 10 15  1  0  0  0  0
 10  8  1  0  0  0  0
 11 10  2  0  0  0  0
 12 13  2  0  0  0  0
 12 11  1  0  0  0  0
 13 14  1  0  0  0  0
 14 15  2  0  0  0  0
 16 21  1  0  0  0  0
 17 16  1  0  0  0  0
 17 18  1  0  0  0  0
 18 19  1  0  0  0  0
 19 20  1  0  0  0  0
 21 20  1  0  0  0  0
 22 23  1  0  0  0  0
 22 25  1  0  0  0  0
 23 24  2  0  0  0  0
 26 30  1  0  0  0  0
 26 22  1  0  0  0  0
 27 28  1  0  0  0  0
 27 34  1  0  0  0  0
 29 28  2  0  0  0  0
 30 29  1  0  0  0  0
 31 30  2  0  0  0  0
 31 32  1  0  0  0  0
 32 27  2  0  0  0  0
 34 33  1  0  0  0  0
 35 32  1  0  0  0  0
 35 36  1  0  0  0  0
M  END
>  <minimizedAffinity>
-6.79009056

$$$$

 OpenBabel09122219383D

 36 40  0  0  0  0  0  0  0  0999 V2000
    2.3010  -10.3590    2.3130 C   0  0  0  0  0  0  0  0  0  0  0  0
    3.3220  -10.2160    1.3690 C   0  0  0  0  0  3  0  0  0  0  0  0
    4.0990   -9.0530    1.3230 C   0  0  0  0  0  3  0  0  0  0  0  0
    3.8190   -8.0540    2.2690 C   0  0  0  0  0  0  0  0  0  0  0  0
    2.8320   -8.2040    3.2330 C   0  0  0  0  0  0  0  0  0  0  0  0
    2.0570   -9.3690    3.2730 C   0  0  0  0  0  3  0  0  0  0  0  0
    2.7770   -7.1120    4.0460 N   0  0  0  0  0  0  0  0  0  0  0  0
    3.7430   -6.2890    3.6520 C   0  0  0  0  0  0  0  0  0  0  0  0
    4.3470   -6.7900    2.5060 N   0  0  0  0  0  0  0  0  0  0  0  0
    4.0520   -5.0430    4.3680 C   0  0  0  0  0  0  0  0  0  0  0  0
    3.1610   -3.9730    4.3330 C   0  0  0  0  0  3  0  0  0  0  0  0
    3.4580   -2.8220    5.0600 C   0  0  0  0  0  3  0  0  0  0  0  0
    4.6260   -2.7750    5.8070 C   0  0  0  0  0  3  0  0  0  0  0  0
    5.4510   -3.8880    5.7990 C   0  0  0  0  0  3  0  0  0  0  0  0
    5.1900   -5.0160    5.0990 N   0  0  0  0  0  0  0  0  0  0  0  0
    5.2980   -6.1490    1.5970 C   0  0  0  0  0  3  0  0  0  0  0  0
    6.7700   -6.5580    1.7920 C   0  0  0  0  0  2  0  0  0  0  0  0
    7.6940   -5.7630    0.8710 C   0  0  0  0  0  2  0  0  0  0  0  0
    7.2500   -5.8580   -0.5870 C   0  0  0  0  0  2  0  0  0  0  0  0
    5.8090   -5.3890   -0.7660 C   0  0  0  0  0  2  0  0  0  0  0  0
    4.8410   -6.1610    0.1300 C   0  0  0  0  0  2  0  0  0  0  0  0
    1.0610  -12.1270    3.4930 N   0  0  0  0  0  0  0  0  0  0  0  0
    1.5070  -11.6050    2.3070 C   0  0  0  0  0  0  0  0  0  0  0  0
    1.2280  -12.1400    1.2390 O   0  0  0  0  0  0  0  0  0  0  0  0
    0.5680  -13.0060    3.3940 H   0  0  0  0  0  0  0  0  0  0  0  0
    1.1470  -11.5360    4.8130 C   0  0  0  0  0  2  0  0  0  0  0  0
   -2.4240   -9.3310    5.8010 C   0  0  0  0  0  0  0  0  0  0  0  0
   -1.2230   -9.0430    6.4510 C   0  0  0  0  0  3  0  0  0  0  0  0
   -0.0660   -9.7530    6.1270 C   0  0  0  0  0  3  0  0  0  0  0  0
   -0.0970  -10.7530    5.1410 C   0  0  0  0  0  0  0  0  0  0  0  0
   -1.3050  -11.0130    4.4770 C   0  0  0  0  0  3  0  0  0  0  0  0
   -2.4600  -10.2860    4.7810 C   0  0  0  0  0  0  0  0  0  0  0  0
   -3.3920   -7.2570    5.8040 C   0  0  0  0  0  1  0  0  0  0  0  0
   -3.5320   -8.6260    6.1890 O   0  0  0  0  0  0  0  0  0  0  0  0
   -3.5760  -10.6260    4.0630 O   0  0  0  0  0  0  0  0  0  0  0  0
   -4.2980  -11.7210    4.6260 C   0  0  0  0  0  1  0  0  0  0  0  0
  1  6  1  0  0  0  0
  2  1  2  0  0  0  0
  3  2  1  0  0  0  0
  3  4  2  0  0  0  0
  4  9  1  0  0  0  0
  4  5  1  0  0  0  0
  5  6  2  0  0  0  0
  5  7  1  0  0  0  0
  8  7  2  0  0  0  0
  8 10  1  0  0  0  0
  9  8  1  0  0  0  0
 10 15  1  0  0  0  0
 11 10  2  0  0  0  0
 11 12  1  0  0  0  0
 12 13  2  0  0  0  0
 14 13  1  0  0  0  0
 15 14  2  0  0  0  0
 16 17  1  0  0  0  0
 16  9  1  0  0  0  0
 18 17  1  0  0  0  0
 19 18  1  0  0  0  0
 20 19  1  0  0  0  0
 20 21  1  0  0  0  0
 21 16  1  0  0  0  0
 22 26  1  0  0  0  0
 23  1  1  0  0  0  0
 23 22  1  0  0  0  0
 24 23  2  0  0  0  0
 25 22  1  0  0  0  0
 26 30  1  0  0  0  0
 27 34  1  0  0  0  0
 27 28  1  0  0  0  0
 29 28  2  0  0  0  0
 30 29  1  0  0  0  0
 31 32  1  0  0  0  0
 31 30  2  0  0  0  0
 32 27  2  0  0  0  0
 33 34  1  0  0  0  0
 35 36  1  0  0  0  0
 35 32  1  0  0  0  0
M  END
>  <minimizedAffinity>
-6.11357975

$$$$

 OpenBabel09122219383D

 36 40  0  0  0  0  0  0  0  0999 V2000
    2.6470  -11.1100    3.2470 C   0  0  0  0  0  0  0  0  0  0  0  0
    1.7050  -12.1070    2.9790 C   0  0  0  0  0  3  0  0  0  0  0  0
    0.3650  -11.9450    3.3480 C   0  0  0  0  0  3  0  0  0  0  0  0
    0.0110  -10.7410    3.9780 C   0  0  0  0  0  0  0  0  0  0  0  0
    0.9340   -9.7320    4.2130 C   0  0  0  0  0  0  0  0  0  0  0  0
    2.2740   -9.9000    3.8440 C   0  0  0  0  0  3  0  0  0  0  0  0
    0.3390   -8.6590    4.8080 N   0  0  0  0  0  0  0  0  0  0  0  0
   -0.9550   -8.9440    4.9100 C   0  0  0  0  0  0  0  0  0  0  0  0
   -1.1820  -10.2500    4.4950 N   0  0  0  0  0  0  0  0  0  0  0  0
   -1.9350   -7.9710    5.4140 C   0  0  0  0  0  0  0  0  0  0  0  0
   -3.1050   -8.4080    6.0300 C   0  0  0  0  0  3  0  0  0  0  0  0
   -3.9940   -7.4640    6.5420 C   0  0  0  0  0  3  0  0  0  0  0  0
   -3.6840   -6.1150    6.4340 C   0  0  0  0  0  3  0  0  0  0  0  0
   -2.4930   -5.7660    5.8200 C   0  0  0  0  0  3  0  0  0  0  0  0
   -1.6160   -6.6600    5.3100 N   0  0  0  0  0  0  0  0  0  0  0  0
   -2.3850  -11.0730    4.6220 C   0  0  0  0  0  3  0  0  0  0  0  0
   -2.9600  -11.1800    6.0470 C   0  0  0  0  0  2  0  0  0  0  0  0
   -4.1480  -12.1390    6.0960 C   0  0  0  0  0  2  0  0  0  0  0  0
   -5.2100  -11.7700    5.0640 C   0  0  0  0  0  2  0  0  0  0  0  0
   -4.6310  -11.7320    3.6520 C   0  0  0  0  0  2  0  0  0  0  0  0
   -3.4430  -10.7780    3.5480 C   0  0  0  0  0  2  0  0  0  0  0  0
    4.5480  -10.7040    1.7390 N   0  0  0  0  0  0  0  0  0  0  0  0
    4.0500  -11.3420    2.8450 C   0  0  0  0  0  0  0  0  0  0  0  0
    4.7620  -12.0760    3.5220 O   0  0  0  0  0  0  0  0  0  0  0  0
    5.5020  -10.9600    1.5130 H   0  0  0  0  0  0  0  0  0  0  0  0
    3.9090   -9.6800    0.9380 C   0  0  0  0  0  2  0  0  0  0  0  0
    6.1700   -6.0120    1.0880 C   0  0  0  0  0  0  0  0  0  0  0  0
    6.0740   -6.7250   -0.1090 C   0  0  0  0  0  3  0  0  0  0  0  0
    5.3370   -7.9090   -0.1570 C   0  0  0  0  0  3  0  0  0  0  0  0
    4.6810   -8.3870    0.9880 C   0  0  0  0  0  0  0  0  0  0  0  0
    4.7630   -7.6470    2.1760 C   0  0  0  0  0  3  0  0  0  0  0  0
    5.4780   -6.4460    2.2230 C   0  0  0  0  0  0  0  0  0  0  0  0
    8.0610   -5.0580    0.2190 C   0  0  0  0  0  1  0  0  0  0  0  0
    6.9370   -4.8770    1.0820 O   0  0  0  0  0  0  0  0  0  0  0  0
    5.4820   -5.8090    3.4350 O   0  0  0  0  0  0  0  0  0  0  0  0
    4.2300   -5.8840    4.1170 C   0  0  0  0  0  1  0  0  0  0  0  0
  1  6  1  0  0  0  0
  2  1  2  0  0  0  0
  2  3  1  0  0  0  0
  3  4  2  0  0  0  0
  4  5  1  0  0  0  0
  4  9  1  0  0  0  0
  5  7  1  0  0  0  0
  6  5  2  0  0  0  0
  7  8  2  0  0  0  0
  8 10  1  0  0  0  0
  9 16  1  0  0  0  0
  9  8  1  0  0  0  0
 10 11  1  0  0  0  0
 11 12  2  0  0  0  0
 13 12  1  0  0  0  0
 14 13  2  0  0  0  0
 15 10  2  0  0  0  0
 15 14  1  0  0  0  0
 16 17  1  0  0  0  0
 17 18  1  0  0  0  0
 19 18  1  0  0  0  0
 20 19  1  0  0  0  0
 21 20  1  0  0  0  0
 21 16  1  0  0  0  0
 22 23  1  0  0  0  0
 23  1  1  0  0  0  0
 23 24  2  0  0  0  0
 25 22  1  0  0  0  0
 26 30  1  0  0  0  0
 26 22  1  0  0  0  0
 27 32  1  0  0  0  0
 28 27  2  0  0  0  0
 29 28  1  0  0  0  0
 29 30  2  0  0  0  0
 30 31  1  0  0  0  0
 31 32  2  0  0  0  0
 32 35  1  0  0  0  0
 33 34  1  0  0  0  0
 34 27  1  0  0  0  0
 35 36  1  0  0  0  0
M  END
>  <minimizedAffinity>
-5.74456739

$$$$

 OpenBabel09122219383D

 36 40  0  0  0  0  0  0  0  0999 V2000
    4.2670   -9.9390    3.7660 C   0  0  0  0  0  0  0  0  0  0  0  0
    5.3810   -9.5350    3.0250 C   0  0  0  0  0  3  0  0  0  0  0  0
    5.6860   -8.1780    2.8680 C   0  0  0  0  0  3  0  0  0  0  0  0
    4.8380   -7.2510    3.4960 C   0  0  0  0  0  0  0  0  0  0  0  0
    3.7520   -7.6460    4.2640 C   0  0  0  0  0  0  0  0  0  0  0  0
    3.4510   -9.0050    4.4160 C   0  0  0  0  0  3  0  0  0  0  0  0
    3.1090   -6.5650    4.7880 N   0  0  0  0  0  0  0  0  0  0  0  0
    3.7930   -5.4900    4.4100 C   0  0  0  0  0  0  0  0  0  0  0  0
    4.8090   -5.8620    3.5400 N   0  0  0  0  0  0  0  0  0  0  0  0
    3.4500   -4.1390    4.8750 C   0  0  0  0  0  0  0  0  0  0  0  0
    2.3990   -3.4390    4.2860 C   0  0  0  0  0  3  0  0  0  0  0  0
    2.0650   -2.1790    4.7790 C   0  0  0  0  0  3  0  0  0  0  0  0
    2.7800   -1.6590    5.8490 C   0  0  0  0  0  3  0  0  0  0  0  0
    3.8000   -2.4260    6.3860 C   0  0  0  0  0  3  0  0  0  0  0  0
    4.1490   -3.6480    5.9240 N   0  0  0  0  0  0  0  0  0  0  0  0
    5.6770   -5.0290    2.7080 C   0  0  0  0  0  3  0  0  0  0  0  0
    6.6390   -4.1070    3.4800 C   0  0  0  0  0  2  0  0  0  0  0  0
    7.4270   -3.2050    2.5310 C   0  0  0  0  0  2  0  0  0  0  0  0
    8.1370   -4.0150    1.4490 C   0  0  0  0  0  2  0  0  0  0  0  0
    7.1560   -4.8740    0.6560 C   0  0  0  0  0  2  0  0  0  0  0  0
    6.3480   -5.8010    1.5610 C   0  0  0  0  0  2  0  0  0  0  0  0
    2.7670  -11.8720    3.5060 N   0  0  0  0  0  0  0  0  0  0  0  0
    3.9900  -11.3850    3.8870 C   0  0  0  0  0  0  0  0  0  0  0  0
    4.8670  -12.1380    4.2980 O   0  0  0  0  0  0  0  0  0  0  0  0
    2.6520  -12.8640    3.6690 H   0  0  0  0  0  0  0  0  0  0  0  0
    1.6930  -11.1600    2.8430 C   0  0  0  0  0  2  0  0  0  0  0  0
   -1.5650  -10.3120    5.5360 C   0  0  0  0  0  0  0  0  0  0  0  0
   -1.0370  -11.6020    5.4640 C   0  0  0  0  0  3  0  0  0  0  0  0
    0.0220  -11.8740    4.5960 C   0  0  0  0  0  3  0  0  0  0  0  0
    0.5690  -10.8560    3.7980 C   0  0  0  0  0  0  0  0  0  0  0  0
    0.0460   -9.5590    3.9020 C   0  0  0  0  0  3  0  0  0  0  0  0
   -0.9960   -9.2760    4.7880 C   0  0  0  0  0  0  0  0  0  0  0  0
   -3.8090  -10.6770    5.8060 C   0  0  0  0  0  1  0  0  0  0  0  0
   -2.6260  -10.1150    6.3790 O   0  0  0  0  0  0  0  0  0  0  0  0
   -1.4190   -7.9730    4.8060 O   0  0  0  0  0  0  0  0  0  0  0  0
   -0.5030   -7.0910    5.4560 C   0  0  0  0  0  1  0  0  0  0  0  0
  1 23  1  0  0  0  0
  1  6  1  0  0  0  0
  2  1  2  0  0  0  0
  3  2  1  0  0  0  0
  3  4  2  0  0  0  0
  4  9  1  0  0  0  0
  4  5  1  0  0  0  0
  5  6  2  0  0  0  0
  5  7  1  0  0  0  0
  8  7  2  0  0  0  0
  8 10  1  0  0  0  0
  9  8  1  0  0  0  0
 10 15  1  0  0  0  0
 11 12  1  0  0  0  0
 11 10  2  0  0  0  0
 12 13  2  0  0  0  0
 13 14  1  0  0  0  0
 15 14  2  0  0  0  0
 16 17  1  0  0  0  0
 16  9  1  0  0  0  0
 18 17  1  0  0  0  0
 19 18  1  0  0  0  0
 20 19  1  0  0  0  0
 20 21  1  0  0  0  0
 21 16  1  0  0  0  0
 22 25  1  0  0  0  0
 22 23  1  0  0  0  0
 23 24  2  0  0  0  0
 26 22  1  0  0  0  0
 26 30  1  0  0  0  0
 27 34  1  0  0  0  0
 28 27  1  0  0  0  0
 29 28  2  0  0  0  0
 30 31  2  0  0  0  0
 30 29  1  0  0  0  0
 31 32  1  0  0  0  0
 32 35  1  0  0  0  0
 32 27  2  0  0  0  0
 33 34  1  0  0  0  0
 35 36  1  0  0  0  0
M  END
>  <minimizedAffinity>
-4.70051908

$$$$

 OpenBabel09122219383D

 36 40  0  0  0  0  0  0  0  0999 V2000
    2.8740  -10.8170    3.1190 C   0  0  0  0  0  0  0  0  0  0  0  0
    1.9390  -11.7960    2.7710 C   0  0  0  0  0  3  0  0  0  0  0  0
    0.5930  -11.6630    3.1320 C   0  0  0  0  0  3  0  0  0  0  0  0
    0.2270  -10.5060    3.8390 C   0  0  0  0  0  0  0  0  0  0  0  0
    1.1430   -9.5130    4.1550 C   0  0  0  0  0  0  0  0  0  0  0  0
    2.4890   -9.6520    3.7930 C   0  0  0  0  0  3  0  0  0  0  0  0
    0.5370   -8.4850    4.8140 N   0  0  0  0  0  0  0  0  0  0  0  0
   -0.7560   -8.7790    4.8790 C   0  0  0  0  0  0  0  0  0  0  0  0
   -0.9740  -10.0540    4.3730 N   0  0  0  0  0  0  0  0  0  0  0  0
   -1.7460   -7.8460    5.4360 C   0  0  0  0  0  0  0  0  0  0  0  0
   -1.6020   -6.4740    5.2470 C   0  0  0  0  0  3  0  0  0  0  0  0
   -2.5800   -5.6150    5.7450 C   0  0  0  0  0  3  0  0  0  0  0  0
   -3.6770   -6.1500    6.4070 C   0  0  0  0  0  3  0  0  0  0  0  0
   -3.7500   -7.5270    6.5400 C   0  0  0  0  0  3  0  0  0  0  0  0
   -2.8130   -8.3820    6.0720 N   0  0  0  0  0  0  0  0  0  0  0  0
   -2.1750  -10.8880    4.4270 C   0  0  0  0  0  3  0  0  0  0  0  0
   -2.7590  -11.1070    5.8350 C   0  0  0  0  0  2  0  0  0  0  0  0
   -3.9440  -12.0700    5.8020 C   0  0  0  0  0  2  0  0  0  0  0  0
   -5.0010  -11.6230    4.7950 C   0  0  0  0  0  2  0  0  0  0  0  0
   -4.4140  -11.4730    3.3950 C   0  0  0  0  0  2  0  0  0  0  0  0
   -3.2270  -10.5110    3.3730 C   0  0  0  0  0  2  0  0  0  0  0  0
    4.8140  -10.2530    1.7140 N   0  0  0  0  0  0  0  0  0  0  0  0
    4.2830  -11.0170    2.7200 C   0  0  0  0  0  0  0  0  0  0  0  0
    4.9700  -11.8410    3.3140 O   0  0  0  0  0  0  0  0  0  0  0  0
    5.7690  -10.4930    1.4780 H   0  0  0  0  0  0  0  0  0  0  0  0
    4.2050   -9.1270    1.0350 C   0  0  0  0  0  2  0  0  0  0  0  0
    5.2870   -5.3710    2.8530 C   0  0  0  0  0  0  0  0  0  0  0  0
    4.4190   -6.2420    3.5140 C   0  0  0  0  0  3  0  0  0  0  0  0
    4.0730   -7.4600    2.9270 C   0  0  0  0  0  3  0  0  0  0  0  0
    4.6010   -7.8240    1.6780 C   0  0  0  0  0  0  0  0  0  0  0  0
    5.4930   -6.9510    1.0380 C   0  0  0  0  0  3  0  0  0  0  0  0
    5.8620   -5.7420    1.6330 C   0  0  0  0  0  0  0  0  0  0  0  0
    4.4890   -3.2570    3.2240 C   0  0  0  0  0  1  0  0  0  0  0  0
    5.5590   -4.1740    3.4620 O   0  0  0  0  0  0  0  0  0  0  0  0
    6.7440   -4.9760    0.9170 O   0  0  0  0  0  0  0  0  0  0  0  0
    7.8680   -5.7120    0.4340 C   0  0  0  0  0  1  0  0  0  0  0  0
  1  6  1  0  0  0  0
  2  1  2  0  0  0  0
  2  3  1  0  0  0  0
  3  4  2  0  0  0  0
  4  5  1  0  0  0  0
  4  9  1  0  0  0  0
  5  7  1  0  0  0  0
  6  5  2  0  0  0  0
  7  8  2  0  0  0  0
  8 10  1  0  0  0  0
  9 16  1  0  0  0  0
  9  8  1  0  0  0  0
 10 15  1  0  0  0  0
 11 10  2  0  0  0  0
 11 12  1  0  0  0  0
 12 13  2  0  0  0  0
 13 14  1  0  0  0  0
 15 14  2  0  0  0  0
 16 17  1  0  0  0  0
 18 17  1  0  0  0  0
 19 18  1  0  0  0  0
 20 19  1  0  0  0  0
 21 20  1  0  0  0  0
 21 16  1  0  0  0  0
 22 23  1  0  0  0  0
 23  1  1  0  0  0  0
 23 24  2  0  0  0  0
 25 22  1  0  0  0  0
 26 30  1  0  0  0  0
 26 22  1  0  0  0  0
 27 34  1  0  0  0  0
 27 28  1  0  0  0  0
 29 28  2  0  0  0  0
 30 29  1  0  0  0  0
 31 32  1  0  0  0  0
 31 30  2  0  0  0  0
 32 27  2  0  0  0  0
 33 34  1  0  0  0  0
 35 32  1  0  0  0  0
 36 35  1  0  0  0  0
M  END
>  <minimizedAffinity>
-4.63260555

$$$$

 OpenBabel09122219383D

 36 40  0  0  0  0  0  0  0  0999 V2000
    3.4410   -9.6280    1.7840 C   0  0  0  0  0  0  0  0  0  0  0  0
    4.7250   -9.4730    1.2530 C   0  0  0  0  0  3  0  0  0  0  0  0
    5.4970   -8.3470    1.5580 C   0  0  0  0  0  3  0  0  0  0  0  0
    4.9350   -7.3970    2.4260 C   0  0  0  0  0  0  0  0  0  0  0  0
    3.6770   -7.5620    2.9870 C   0  0  0  0  0  0  0  0  0  0  0  0
    2.9080   -8.6900    2.6760 C   0  0  0  0  0  3  0  0  0  0  0  0
    3.3730   -6.5210    3.8130 N   0  0  0  0  0  0  0  0  0  0  0  0
    4.4330   -5.7210    3.8300 C   0  0  0  0  0  0  0  0  0  0  0  0
    5.3790   -6.1760    2.9200 N   0  0  0  0  0  0  0  0  0  0  0  0
    4.5090   -4.5380    4.6990 C   0  0  0  0  0  0  0  0  0  0  0  0
    3.6020   -3.4920    4.5440 C   0  0  0  0  0  3  0  0  0  0  0  0
    3.6670   -2.4050    5.4120 C   0  0  0  0  0  3  0  0  0  0  0  0
    4.6270   -2.3960    6.4150 C   0  0  0  0  0  3  0  0  0  0  0  0
    5.4810   -3.4820    6.5100 C   0  0  0  0  0  3  0  0  0  0  0  0
    5.4440   -4.5470    5.6770 N   0  0  0  0  0  0  0  0  0  0  0  0
    6.5960   -5.5240    2.4350 C   0  0  0  0  0  3  0  0  0  0  0  0
    6.9370   -5.7890    0.9570 C   0  0  0  0  0  2  0  0  0  0  0  0
    8.2730   -5.1540    0.5720 C   0  0  0  0  0  2  0  0  0  0  0  0
    8.3100   -3.6700    0.9230 C   0  0  0  0  0  2  0  0  0  0  0  0
    8.0310   -3.4360    2.4050 C   0  0  0  0  0  2  0  0  0  0  0  0
    6.6990   -4.0460    2.8390 C   0  0  0  0  0  2  0  0  0  0  0  0
    2.3200  -11.7320    2.3910 N   0  0  0  0  0  0  0  0  0  0  0  0
    2.6690  -10.8330    1.4180 C   0  0  0  0  0  0  0  0  0  0  0  0
    2.3210  -10.9990    0.2530 O   0  0  0  0  0  0  0  0  0  0  0  0
    1.8350  -12.5490    2.0400 H   0  0  0  0  0  0  0  0  0  0  0  0
    2.4930  -11.6050    3.8240 C   0  0  0  0  0  2  0  0  0  0  0  0
   -1.0210   -9.9860    5.7250 C   0  0  0  0  0  0  0  0  0  0  0  0
    0.2470   -9.5720    6.1350 C   0  0  0  0  0  3  0  0  0  0  0  0
    1.3840  -10.0930    5.5150 C   0  0  0  0  0  3  0  0  0  0  0  0
    1.2640  -11.0250    4.4720 C   0  0  0  0  0  0  0  0  0  0  0  0
   -0.0180  -11.4110    4.0530 C   0  0  0  0  0  3  0  0  0  0  0  0
   -1.1600  -10.8730    4.6530 C   0  0  0  0  0  0  0  0  0  0  0  0
   -1.9440   -8.0540    6.5360 C   0  0  0  0  0  1  0  0  0  0  0  0
   -2.0970   -9.4680    6.3960 O   0  0  0  0  0  0  0  0  0  0  0  0
   -2.3550  -11.3210    4.1550 O   0  0  0  0  0  0  0  0  0  0  0  0
   -2.9380  -10.4320    3.2020 C   0  0  0  0  0  1  0  0  0  0  0  0
  1  6  1  0  0  0  0
  2  3  1  0  0  0  0
  2  1  2  0  0  0  0
  3  4  2  0  0  0  0
  4  9  1  0  0  0  0
  4  5  1  0  0  0  0
  5  7  1  0  0  0  0
  6  5  2  0  0  0  0
  7  8  2  0  0  0  0
  8 10  1  0  0  0  0
  9  8  1  0  0  0  0
 10 15  1  0  0  0  0
 11 10  2  0  0  0  0
 11 12  1  0  0  0  0
 12 13  2  0  0  0  0
 13 14  1  0  0  0  0
 15 14  2  0  0  0  0
 16 21  1  0  0  0  0
 16  9  1  0  0  0  0
 17 16  1  0  0  0  0
 18 19  1  0  0  0  0
 18 17  1  0  0  0  0
 19 20  1  0  0  0  0
 20 21  1  0  0  0  0
 22 26  1  0  0  0  0
 23  1  1  0  0  0  0
 23 22  1  0  0  0  0
 24 23  2  0  0  0  0
 25 22  1  0  0  0  0
 26 30  1  0  0  0  0
 27 28  1  0  0  0  0
 27 34  1  0  0  0  0
 29 28  2  0  0  0  0
 30 29  1  0  0  0  0
 31 30  2  0  0  0  0
 31 32  1  0  0  0  0
 32 27  2  0  0  0  0
 34 33  1  0  0  0  0
 35 32  1  0  0  0  0
 36 35  1  0  0  0  0
M  END
>  <minimizedAffinity>
-4.60494328

$$$$
