
 OpenBabel09122222393D

 39 44  0  0  0  0  0  0  0  0999 V2000
    3.4130   -6.7920    4.7980 C   0  0  0  0  0  0  0  0  0  0  0  0
    3.6330   -7.8350    5.7110 C   0  0  0  0  0  3  0  0  0  0  0  0
    2.8420   -7.9590    6.8570 C   0  0  0  0  0  3  0  0  0  0  0  0
    1.8490   -7.0180    7.1140 C   0  0  0  0  0  0  0  0  0  0  0  0
    1.5970   -5.9900    6.2100 C   0  0  0  0  0  3  0  0  0  0  0  0
    2.3900   -5.8770    5.0700 C   0  0  0  0  0  0  0  0  0  0  0  0
    2.1490   -4.8550    4.2360 F   0  0  0  0  0  0  0  0  0  0  0  0
    7.3740   -5.4260    0.5190 C   0  0  0  0  0  0  0  0  0  0  0  0
    6.8980   -6.5910   -0.1010 C   0  0  0  0  0  3  0  0  0  0  0  0
    5.9050   -7.3940    0.4760 C   0  0  0  0  0  3  0  0  0  0  0  0
    5.3840   -6.9920    1.7140 C   0  0  0  0  0  0  0  0  0  0  0  0
    5.8310   -5.8410    2.3560 C   0  0  0  0  0  0  0  0  0  0  0  0
    6.8300   -5.0520    1.7640 C   0  0  0  0  0  3  0  0  0  0  0  0
    5.1780   -5.6640    3.5480 N   0  0  0  0  0  0  0  0  0  0  0  0
    4.3120   -6.6540    3.6520 C   0  0  0  0  0  0  0  0  0  0  0  0
    4.4370   -7.5200    2.5730 N   0  0  0  0  0  0  0  0  0  0  0  0
    3.7570   -8.8030    2.4170 C   0  0  0  0  0  3  0  0  0  0  0  0
    3.0490   -8.9460    1.0590 C   0  0  0  0  0  2  0  0  0  0  0  0
    2.2980  -10.2730    0.9620 C   0  0  0  0  0  2  0  0  0  0  0  0
    3.2140  -11.4590    1.2480 C   0  0  0  0  0  2  0  0  0  0  0  0
    3.9080  -11.3240    2.6010 C   0  0  0  0  0  2  0  0  0  0  0  0
    4.6710  -10.0050    2.7160 C   0  0  0  0  0  2  0  0  0  0  0  0
    8.6770   -4.7970   -1.3700 O   0  0  0  0  0  0  0  0  0  0  0  0
    8.4540   -4.5870   -0.1360 C   0  0  0  0  0  0  0  0  0  0  0  0
    9.0570   -3.7390    0.5930 O   0  0  0  0  0  1  0  0  0  0  0  0
    1.1070   -7.1590    8.2550 O   0  0  0  0  0  0  0  0  0  0  0  0
    1.1980   -6.0080    9.1110 C   0  0  0  0  0  2  0  0  0  0  0  0
    2.5480   -5.9420    9.7940 C   0  0  0  0  0  0  0  0  0  0  0  0
    2.9200   -7.0060   10.6410 C   0  0  0  0  0  3  0  0  0  0  0  0
    4.1410   -7.0000   11.3110 C   0  0  0  0  0  3  0  0  0  0  0  0
    5.0140   -5.9320   11.1480 C   0  0  0  0  0  3  0  0  0  0  0  0
    4.6610   -4.8680   10.3160 C   0  0  0  0  0  3  0  0  0  0  0  0
    3.4300   -4.8490    9.6320 C   0  0  0  0  0  0  0  0  0  0  0  0
    3.1190   -3.6960    8.7730 C   0  0  0  0  0  0  0  0  0  0  0  0
    2.2140   -2.7080    9.1900 C   0  0  0  0  0  3  0  0  0  0  0  0
    1.9270   -1.6120    8.3740 C   0  0  0  0  0  3  0  0  0  0  0  0
    2.5450   -1.4860    7.1310 C   0  0  0  0  0  3  0  0  0  0  0  0
    3.4500   -2.4550    6.7030 C   0  0  0  0  0  3  0  0  0  0  0  0
    3.7350   -3.5520    7.5200 C   0  0  0  0  0  3  0  0  0  0  0  0
  1  6  2  0  0  0  0
  1  2  1  0  0  0  0
  2  3  2  0  0  0  0
  3  4  1  0  0  0  0
  4 26  1  0  0  0  0
  5  4  2  0  0  0  0
  6  5  1  0  0  0  0
  7  6  1  0  0  0  0
  8 13  1  0  0  0  0
  9 10  1  0  0  0  0
  9  8  2  0  0  0  0
 10 11  2  0  0  0  0
 11 12  1  0  0  0  0
 11 16  1  0  0  0  0
 12 14  1  0  0  0  0
 13 12  2  0  0  0  0
 14 15  2  0  0  0  0
 15  1  1  0  0  0  0
 16 15  1  0  0  0  0
 17 16  1  0  0  0  0
 17 22  1  0  0  0  0
 18 17  1  0  0  0  0
 19 18  1  0  0  0  0
 19 20  1  0  0  0  0
 20 21  1  0  0  0  0
 21 22  1  0  0  0  0
 23 24  2  0  0  0  0
 24  8  1  0  0  0  0
 24 25  1  0  0  0  0
 26 27  1  0  0  0  0
 27 28  1  0  0  0  0
 28 29  1  0  0  0  0
 29 30  2  0  0  0  0
 31 30  1  0  0  0  0
 32 31  2  0  0  0  0
 33 28  2  0  0  0  0
 33 32  1  0  0  0  0
 34 35  1  0  0  0  0
 34 33  1  0  0  0  0
 36 35  2  0  0  0  0
 37 36  1  0  0  0  0
 38 37  2  0  0  0  0
 38 39  1  0  0  0  0
 39 34  2  0  0  0  0
M  END
>  <minimizedAffinity>
-8.2260704

$$$$
