
 OpenBabel09122222393D

 39 44  0  0  0  0  0  0  0  0999 V2000
    6.1910   -6.4720    0.8630 C   0  0  0  0  0  0  0  0  0  0  0  0
    7.4760   -6.3430    1.4120 C   0  0  0  0  0  3  0  0  0  0  0  0
    8.4770   -5.6460    0.7290 C   0  0  0  0  0  3  0  0  0  0  0  0
    8.2080   -5.1060   -0.5260 C   0  0  0  0  0  0  0  0  0  0  0  0
    6.9340   -5.2000   -1.0770 C   0  0  0  0  0  3  0  0  0  0  0  0
    5.9420   -5.8940   -0.3880 C   0  0  0  0  0  0  0  0  0  0  0  0
    4.7350   -6.0010   -0.9610 F   0  0  0  0  0  0  0  0  0  0  0  0
    2.2800  -10.4050    3.1190 C   0  0  0  0  0  0  0  0  0  0  0  0
    2.0090   -9.3920    4.0520 C   0  0  0  0  0  3  0  0  0  0  0  0
    2.6730   -8.1590    4.0300 C   0  0  0  0  0  3  0  0  0  0  0  0
    3.6330   -7.9560    3.0290 C   0  0  0  0  0  0  0  0  0  0  0  0
    3.9240   -8.9380    2.0870 C   0  0  0  0  0  0  0  0  0  0  0  0
    3.2510  -10.1690    2.1270 C   0  0  0  0  0  3  0  0  0  0  0  0
    4.8960   -8.5080    1.2200 N   0  0  0  0  0  0  0  0  0  0  0  0
    5.1940   -7.2720    1.5750 C   0  0  0  0  0  0  0  0  0  0  0  0
    4.4790   -6.9090    2.7080 N   0  0  0  0  0  0  0  0  0  0  0  0
    4.6530   -5.6810    3.4790 C   0  0  0  0  0  3  0  0  0  0  0  0
    3.9280   -4.4740    2.8580 C   0  0  0  0  0  2  0  0  0  0  0  0
    4.1890   -3.1990    3.6580 C   0  0  0  0  0  2  0  0  0  0  0  0
    3.8310   -3.3760    5.1310 C   0  0  0  0  0  2  0  0  0  0  0  0
    4.5590   -4.5650    5.7510 C   0  0  0  0  0  2  0  0  0  0  0  0
    4.3060   -5.8530    4.9690 C   0  0  0  0  0  2  0  0  0  0  0  0
    1.9770  -12.5940    4.0040 O   0  0  0  0  0  1  0  0  0  0  0  0
    1.5420  -11.7290    3.1790 C   0  0  0  0  0  0  0  0  0  0  0  0
    0.5480  -11.8790    2.4020 O   0  0  0  0  0  0  0  0  0  0  0  0
    9.2170   -4.4480   -1.1740 O   0  0  0  0  0  0  0  0  0  0  0  0
   10.1760   -3.8870   -0.2620 C   0  0  0  0  0  2  0  0  0  0  0  0
   10.1590   -2.3720   -0.3160 C   0  0  0  0  0  0  0  0  0  0  0  0
   10.5700   -1.7440   -1.5090 C   0  0  0  0  0  3  0  0  0  0  0  0
   10.5920   -0.3560   -1.6210 C   0  0  0  0  0  3  0  0  0  0  0  0
   10.2060    0.4310   -0.5430 C   0  0  0  0  0  3  0  0  0  0  0  0
    9.7990   -0.1750    0.6470 C   0  0  0  0  0  3  0  0  0  0  0  0
    9.7730   -1.5760    0.7860 C   0  0  0  0  0  0  0  0  0  0  0  0
    9.3370   -2.1490    2.0680 C   0  0  0  0  0  0  0  0  0  0  0  0
    8.0160   -2.5860    2.2530 C   0  0  0  0  0  3  0  0  0  0  0  0
    7.6080   -3.1370    3.4690 C   0  0  0  0  0  3  0  0  0  0  0  0
    8.5170   -3.2630    4.5180 C   0  0  0  0  0  3  0  0  0  0  0  0
    9.8340   -2.8390    4.3510 C   0  0  0  0  0  3  0  0  0  0  0  0
   10.2410   -2.2870    3.1340 C   0  0  0  0  0  3  0  0  0  0  0  0
  1  2  1  0  0  0  0
  1 15  1  0  0  0  0
  3  2  2  0  0  0  0
  4  3  1  0  0  0  0
  5  4  2  0  0  0  0
  5  6  1  0  0  0  0
  6  1  2  0  0  0  0
  7  6  1  0  0  0  0
  8 24  1  0  0  0  0
  8  9  1  0  0  0  0
 10  9  2  0  0  0  0
 11 10  1  0  0  0  0
 12 13  1  0  0  0  0
 12 11  2  0  0  0  0
 13  8  2  0  0  0  0
 14 15  2  0  0  0  0
 14 12  1  0  0  0  0
 15 16  1  0  0  0  0
 16 11  1  0  0  0  0
 16 17  1  0  0  0  0
 17 22  1  0  0  0  0
 18 17  1  0  0  0  0
 18 19  1  0  0  0  0
 19 20  1  0  0  0  0
 20 21  1  0  0  0  0
 22 21  1  0  0  0  0
 24 23  1  0  0  0  0
 25 24  2  0  0  0  0
 26  4  1  0  0  0  0
 26 27  1  0  0  0  0
 28 27  1  0  0  0  0
 28 33  1  0  0  0  0
 29 28  2  0  0  0  0
 30 29  1  0  0  0  0
 30 31  2  0  0  0  0
 31 32  1  0  0  0  0
 32 33  2  0  0  0  0
 33 34  1  0  0  0  0
 34 35  2  0  0  0  0
 34 39  1  0  0  0  0
 35 36  1  0  0  0  0
 36 37  2  0  0  0  0
 38 37  1  0  0  0  0
 39 38  2  0  0  0  0
M  END
>  <minimizedAffinity>
-8.91644955

$$$$
