
 OpenBabel09122222393D

 41 44  0  0  1  0  0  0  0  0999 V2000
    1.5270   -7.0880    5.1180 C   0  0  0  0  0  0  0  0  0  0  0  0
    1.7550   -5.7360    5.3780 C   0  0  0  0  0  3  0  0  0  0  0  0
    2.9150   -5.1090    4.9120 C   0  0  0  0  0  3  0  0  0  0  0  0
    3.8570   -5.8190    4.1620 C   0  0  0  0  0  0  0  0  0  0  0  0
    3.6110   -7.1630    3.9340 C   0  0  0  0  0  0  0  0  0  0  0  0
    2.4640   -7.8200    4.4020 C   0  0  0  0  0  3  0  0  0  0  0  0
    4.7770   -8.0370    2.9820 S   0  0  0  0  0  0  0  0  0  0  0  0
    5.4190   -8.9530    3.8970 O   0  0  0  0  0  0  0  0  0  0  0  0
    4.0490   -8.5350    1.8350 O   0  0  0  0  0  0  0  0  0  0  0  0
    5.8300   -6.9460    2.5010 N   0  0  0  0  0  0  0  0  0  0  0  0
    5.8430   -5.6970    2.8850 C   0  0  2  0  0  3  0  0  0  0  0  0
    4.9350   -5.1560    3.6800 N   0  0  0  0  0  0  0  0  0  0  0  0
    6.5630   -7.2590    1.8770 H   0  0  0  0  0  0  0  0  0  0  0  0
    5.0460   -4.1550    3.9060 H   0  0  0  0  0  0  0  0  0  0  0  0
    6.9790   -4.8200    2.3690 C   0  0  0  0  0  0  0  0  0  0  0  0
    7.5430   -4.9680    1.1560 C   0  0  0  0  0  0  0  0  0  0  0  0
    8.6140   -4.0710    0.6910 C   0  0  0  0  0  0  0  0  0  0  0  0
    9.1340   -4.0850   -0.6120 C   0  0  0  0  0  3  0  0  0  0  0  0
   10.1620   -3.2150   -0.9670 C   0  0  0  0  0  3  0  0  0  0  0  0
   10.6390   -2.3440   -0.0110 C   0  0  0  0  0  3  0  0  0  0  0  0
   10.1450   -2.2830    1.2410 N   0  0  0  0  0  0  0  0  0  0  0  0
    9.1390   -3.1230    1.5770 C   0  0  0  0  0  0  0  0  0  0  0  0
    8.5780   -3.0020    2.8720 N   0  0  0  0  0  0  0  0  0  0  0  0
    7.5030   -3.7560    3.2800 C   0  0  0  0  0  0  0  0  0  0  0  0
    6.9560   -3.6370    4.3800 O   0  0  0  0  0  0  0  0  0  0  0  0
    7.1350   -6.0060    0.3250 O   0  0  0  0  0  0  0  0  0  0  0  0
    7.8270   -6.1760   -0.3460 H   0  0  0  0  0  0  0  0  0  0  0  0
    9.1430   -1.9970    3.7750 C   0  0  0  0  0  2  0  0  0  0  0  0
   10.1680   -2.5360    4.7860 C   0  0  0  0  0  2  0  0  0  0  0  0
   10.7690   -1.4730    5.7280 C   0  0  0  0  0  3  0  0  0  0  0  0
   10.2250   -0.0690    5.4450 C   0  0  0  0  0  1  0  0  0  0  0  0
   10.4610   -1.8330    7.1860 C   0  0  0  0  0  1  0  0  0  0  0  0
    0.2870   -7.6640    5.4910 N   0  0  0  0  0  0  0  0  0  0  0  0
   -0.5780   -7.3080    5.0830 H   0  0  0  0  0  0  0  0  0  0  0  0
    0.1140   -8.2030    7.0940 S   0  0  0  0  0  0  0  0  0  0  0  0
   -0.2970   -7.0820    7.9090 O   0  0  0  0  0  0  0  0  0  0  0  0
    1.3030   -8.9720    7.3860 O   0  0  0  0  0  0  0  0  0  0  0  0
   -1.2500   -9.3530    6.9220 C   0  0  0  0  0  2  0  0  0  0  0  0
   -2.6130   -8.6970    7.1230 C   0  0  0  0  0  2  0  0  0  0  0  0
   -3.6510   -6.4730    6.3990 C   0  0  0  0  0  1  0  0  0  0  0  0
   -3.0930   -7.8200    5.9600 C   0  0  0  0  0  2  0  0  0  0  0  0
  1  2  1  0  0  0  0
  1 33  1  0  0  0  0
  3  2  2  0  0  0  0
  4  3  1  0  0  0  0
  5  4  2  0  0  0  0
  5  6  1  0  0  0  0
  6  1  2  0  0  0  0
  7  8  2  0  0  0  0
  7  5  1  0  0  0  0
  9  7  2  0  0  0  0
 10 11  1  0  0  0  0
 10  7  1  0  0  0  0
 11 15  1  6  0  0  0
 11 12  1  0  0  0  0
 12 14  1  0  0  0  0
 12  4  1  0  0  0  0
 13 10  1  0  0  0  0
 15 24  1  0  0  0  0
 16 15  2  0  0  0  0
 17 16  1  0  0  0  0
 17 22  1  0  0  0  0
 18 17  2  0  0  0  0
 19 18  1  0  0  0  0
 19 20  2  0  0  0  0
 20 21  1  0  0  0  0
 21 22  2  0  0  0  0
 22 23  1  0  0  0  0
 23 24  1  0  0  0  0
 23 28  1  0  0  0  0
 24 25  2  0  0  0  0
 26 16  1  0  0  0  0
 27 26  1  0  0  0  0
 28 29  1  0  0  0  0
 29 30  1  0  0  0  0
 30 32  1  0  0  0  0
 31 30  1  0  0  0  0
 33 35  1  0  0  0  0
 34 33  1  0  0  0  0
 35 37  2  0  0  0  0
 35 36  2  0  0  0  0
 38 35  1  0  0  0  0
 38 39  1  0  0  0  0
 41 40  1  0  0  0  0
 41 39  1  0  0  0  0
M  END
>  <minimizedAffinity>
-6.37935448

$$$$
