
 OpenBabel09122218413D

 41 44  0  0  1  0  0  0  0  0999 V2000
    7.0050   -5.7420    1.4450 C   0  0  0  0  0  0  0  0  0  0  0  0
    6.4220   -4.9780    2.4570 C   0  0  0  0  0  3  0  0  0  0  0  0
    6.9230   -3.7090    2.7660 C   0  0  0  0  0  3  0  0  0  0  0  0
    8.0030   -3.1770    2.0560 C   0  0  0  0  0  0  0  0  0  0  0  0
    8.5700   -3.9650    1.0690 C   0  0  0  0  0  0  0  0  0  0  0  0
    8.0980   -5.2460    0.7490 C   0  0  0  0  0  3  0  0  0  0  0  0
    9.9010   -3.2890    0.1750 S   0  0  0  0  0  0  0  0  0  0  0  0
   11.0650   -4.0470    0.5750 O   0  0  0  0  0  0  0  0  0  0  0  0
    9.4750   -3.2740   -1.2070 O   0  0  0  0  0  0  0  0  0  0  0  0
   10.0420   -1.7930    0.6970 N   0  0  0  0  0  0  0  0  0  0  0  0
    9.3620   -1.2780    1.6880 C   0  0  2  0  0  3  0  0  0  0  0  0
    8.4150   -1.9210    2.3500 N   0  0  0  0  0  0  0  0  0  0  0  0
   10.7360   -1.2120    0.2450 H   0  0  0  0  0  0  0  0  0  0  0  0
    7.9420   -1.4050    3.1080 H   0  0  0  0  0  0  0  0  0  0  0  0
    9.6910    0.1560    2.0890 C   0  0  0  0  0  0  0  0  0  0  0  0
    9.8220    1.1640    1.2070 C   0  0  0  0  0  0  0  0  0  0  0  0
   10.1050    2.5410    1.6480 C   0  0  0  0  0  0  0  0  0  0  0  0
   10.1050    3.6520    0.7910 C   0  0  0  0  0  3  0  0  0  0  0  0
   10.4020    4.9190    1.2860 C   0  0  0  0  0  3  0  0  0  0  0  0
   10.6820    5.0460    2.6300 C   0  0  0  0  0  3  0  0  0  0  0  0
   10.6630    4.0070    3.4880 N   0  0  0  0  0  0  0  0  0  0  0  0
   10.3640    2.7800    3.0030 C   0  0  0  0  0  0  0  0  0  0  0  0
   10.2740    1.7070    3.9240 N   0  0  0  0  0  0  0  0  0  0  0  0
    9.9000    0.4400    3.5410 C   0  0  0  0  0  0  0  0  0  0  0  0
    9.7600   -0.5030    4.3250 O   0  0  0  0  0  0  0  0  0  0  0  0
    9.7200    0.9100   -0.1570 O   0  0  0  0  0  0  0  0  0  0  0  0
   10.1440    1.6380   -0.6560 H   0  0  0  0  0  0  0  0  0  0  0  0
   10.5430    1.9880    5.3360 C   0  0  0  0  0  2  0  0  0  0  0  0
    9.3320    2.4880    6.1400 C   0  0  0  0  0  2  0  0  0  0  0  0
    9.3110    2.0490    7.6190 C   0  0  0  0  0  3  0  0  0  0  0  0
    7.9720    2.3520    8.2980 C   0  0  0  0  0  1  0  0  0  0  0  0
    9.5820    0.5430    7.7200 C   0  0  0  0  0  1  0  0  0  0  0  0
    6.3990   -6.9660    1.0680 N   0  0  0  0  0  0  0  0  0  0  0  0
    6.9590   -7.8190    1.0370 H   0  0  0  0  0  0  0  0  0  0  0  0
    5.1730   -6.9140   -0.1080 S   0  0  0  0  0  0  0  0  0  0  0  0
    5.6130   -7.6710   -1.2590 O   0  0  0  0  0  0  0  0  0  0  0  0
    4.7720   -5.5290   -0.2050 O   0  0  0  0  0  0  0  0  0  0  0  0
    3.8600   -7.8040    0.7280 C   0  0  0  0  0  2  0  0  0  0  0  0
    4.0640   -7.8890    2.2380 C   0  0  0  0  0  2  0  0  0  0  0  0
    3.9030  -10.3990    1.7690 C   0  0  0  0  0  1  0  0  0  0  0  0
    4.0330   -9.3070    2.8210 C   0  0  0  0  0  2  0  0  0  0  0  0
  1  2  1  0  0  0  0
  2  3  2  0  0  0  0
  4 12  1  0  0  0  0
  4  3  1  0  0  0  0
  5  4  2  0  0  0  0
  6  5  1  0  0  0  0
  6  1  2  0  0  0  0
  7  8  2  0  0  0  0
  7 10  1  0  0  0  0
  7  5  1  0  0  0  0
  9  7  2  0  0  0  0
 10 11  1  0  0  0  0
 11 15  1  6  0  0  0
 11 12  1  0  0  0  0
 12 14  1  0  0  0  0
 13 10  1  0  0  0  0
 15 24  1  0  0  0  0
 16 17  1  0  0  0  0
 16 15  2  0  0  0  0
 17 22  1  0  0  0  0
 18 19  1  0  0  0  0
 18 17  2  0  0  0  0
 19 20  2  0  0  0  0
 20 21  1  0  0  0  0
 22 21  2  0  0  0  0
 22 23  1  0  0  0  0
 23 28  1  0  0  0  0
 24 23  1  0  0  0  0
 24 25  2  0  0  0  0
 26 16  1  0  0  0  0
 27 26  1  0  0  0  0
 28 29  1  0  0  0  0
 29 30  1  0  0  0  0
 30 32  1  0  0  0  0
 30 31  1  0  0  0  0
 33  1  1  0  0  0  0
 34 33  1  0  0  0  0
 35 38  1  0  0  0  0
 35 33  1  0  0  0  0
 36 35  2  0  0  0  0
 37 35  2  0  0  0  0
 38 39  1  0  0  0  0
 39 41  1  0  0  0  0
 40 41  1  0  0  0  0
M  END
>  <minimizedAffinity>
-6.98879385

$$$$

 OpenBabel09122218413D

 41 44  0  0  1  0  0  0  0  0999 V2000
    4.4160  -10.2280    2.4970 C   0  0  0  0  0  0  0  0  0  0  0  0
    5.4330   -9.9140    3.3990 C   0  0  0  0  0  3  0  0  0  0  0  0
    6.2830   -8.8290    3.1620 C   0  0  0  0  0  3  0  0  0  0  0  0
    6.1160   -8.0280    2.0280 C   0  0  0  0  0  0  0  0  0  0  0  0
    5.1090   -8.3750    1.1430 C   0  0  0  0  0  0  0  0  0  0  0  0
    4.2540   -9.4660    1.3490 C   0  0  0  0  0  3  0  0  0  0  0  0
    4.8940   -7.3620   -0.2560 S   0  0  0  0  0  0  0  0  0  0  0  0
    5.3040   -8.1660   -1.3860 O   0  0  0  0  0  0  0  0  0  0  0  0
    3.5410   -6.8580   -0.1680 O   0  0  0  0  0  0  0  0  0  0  0  0
    5.9160   -6.1590   -0.0660 N   0  0  0  0  0  0  0  0  0  0  0  0
    6.8020   -6.0730    0.8900 C   0  0  2  0  0  3  0  0  0  0  0  0
    6.9230   -6.9520    1.8700 N   0  0  0  0  0  0  0  0  0  0  0  0
    5.8950   -5.4240   -0.7620 H   0  0  0  0  0  0  0  0  0  0  0  0
    7.6560   -6.7720    2.5740 H   0  0  0  0  0  0  0  0  0  0  0  0
    7.7450   -4.8740    0.8630 C   0  0  0  0  0  0  0  0  0  0  0  0
    8.4980   -4.5430   -0.2020 C   0  0  0  0  0  0  0  0  0  0  0  0
    9.3670   -3.3520   -0.1900 C   0  0  0  0  0  0  0  0  0  0  0  0
   10.0570   -2.8780   -1.3150 C   0  0  0  0  0  3  0  0  0  0  0  0
   10.8740   -1.7550   -1.2150 C   0  0  0  0  0  3  0  0  0  0  0  0
   10.9730   -1.1270    0.0090 C   0  0  0  0  0  3  0  0  0  0  0  0
   10.3030   -1.5380    1.1030 N   0  0  0  0  0  0  0  0  0  0  0  0
    9.5030   -2.6240    0.9970 C   0  0  0  0  0  0  0  0  0  0  0  0
    8.7470   -3.0040    2.1330 N   0  0  0  0  0  0  0  0  0  0  0  0
    7.8480   -4.0440    2.1020 C   0  0  0  0  0  0  0  0  0  0  0  0
    7.1350   -4.3670    3.0560 O   0  0  0  0  0  0  0  0  0  0  0  0
    8.4880   -5.3490   -1.3350 O   0  0  0  0  0  0  0  0  0  0  0  0
    9.2910   -5.1720   -1.8670 H   0  0  0  0  0  0  0  0  0  0  0  0
    8.9050   -2.2180    3.3590 C   0  0  0  0  0  2  0  0  0  0  0  0
    9.9880   -2.7300    4.3230 C   0  0  0  0  0  2  0  0  0  0  0  0
    9.9050   -2.1570    5.7530 C   0  0  0  0  0  3  0  0  0  0  0  0
   10.7520   -0.8920    5.9230 C   0  0  0  0  0  1  0  0  0  0  0  0
    8.4490   -1.8220    6.0970 C   0  0  0  0  0  1  0  0  0  0  0  0
    3.4930  -11.2520    2.8250 N   0  0  0  0  0  0  0  0  0  0  0  0
    3.1860  -11.9060    2.1040 H   0  0  0  0  0  0  0  0  0  0  0  0
    2.2950  -10.8980    3.9800 S   0  0  0  0  0  0  0  0  0  0  0  0
    2.8730  -11.0530    5.2960 O   0  0  0  0  0  0  0  0  0  0  0  0
    1.1170  -11.6250    3.5660 O   0  0  0  0  0  0  0  0  0  0  0  0
    2.0070   -9.1600    3.6510 C   0  0  0  0  0  2  0  0  0  0  0  0
    1.9610   -8.3120    4.9190 C   0  0  0  0  0  2  0  0  0  0  0  0
    3.5170   -6.4420    4.1260 C   0  0  0  0  0  1  0  0  0  0  0  0
    3.2210   -7.4840    5.1960 C   0  0  0  0  0  2  0  0  0  0  0  0
  1 33  1  0  0  0  0
  1  2  1  0  0  0  0
  3  2  2  0  0  0  0
  4  3  1  0  0  0  0
  5  6  1  0  0  0  0
  5  4  2  0  0  0  0
  6  1  2  0  0  0  0
  7  9  2  0  0  0  0
  7 10  1  0  0  0  0
  7  5  1  0  0  0  0
  8  7  2  0  0  0  0
 10 11  1  0  0  0  0
 11 15  1  1  0  0  0
 11 12  1  0  0  0  0
 12  4  1  0  0  0  0
 12 14  1  0  0  0  0
 13 10  1  0  0  0  0
 15 24  1  0  0  0  0
 16 17  1  0  0  0  0
 16 15  2  0  0  0  0
 17 22  1  0  0  0  0
 18 19  1  0  0  0  0
 18 17  2  0  0  0  0
 19 20  2  0  0  0  0
 20 21  1  0  0  0  0
 22 21  2  0  0  0  0
 22 23  1  0  0  0  0
 23 28  1  0  0  0  0
 24 23  1  0  0  0  0
 24 25  2  0  0  0  0
 26 16  1  0  0  0  0
 27 26  1  0  0  0  0
 28 29  1  0  0  0  0
 29 30  1  0  0  0  0
 30 31  1  0  0  0  0
 30 32  1  0  0  0  0
 33 35  1  0  0  0  0
 34 33  1  0  0  0  0
 35 36  2  0  0  0  0
 37 35  2  0  0  0  0
 38 35  1  0  0  0  0
 38 39  1  0  0  0  0
 39 41  1  0  0  0  0
 40 41  1  0  0  0  0
M  END
>  <minimizedAffinity>
-6.89629984

$$$$

 OpenBabel09122218413D

 41 44  0  0  1  0  0  0  0  0999 V2000
    4.7450   -7.1930    1.0420 C   0  0  0  0  0  0  0  0  0  0  0  0
    4.2980   -6.5270    2.1840 C   0  0  0  0  0  3  0  0  0  0  0  0
    5.0470   -5.4830    2.7360 C   0  0  0  0  0  3  0  0  0  0  0  0
    6.2460   -5.0750    2.1440 C   0  0  0  0  0  0  0  0  0  0  0  0
    6.6720   -5.7660    1.0220 C   0  0  0  0  0  0  0  0  0  0  0  0
    5.9490   -6.8250    0.4570 C   0  0  0  0  0  3  0  0  0  0  0  0
    8.1550   -5.2400    0.2780 S   0  0  0  0  0  0  0  0  0  0  0  0
    9.1100   -6.2990    0.5210 O   0  0  0  0  0  0  0  0  0  0  0  0
    7.8020   -4.8680   -1.0740 O   0  0  0  0  0  0  0  0  0  0  0  0
    8.5930   -3.9410    1.0840 N   0  0  0  0  0  0  0  0  0  0  0  0
    7.9980   -3.4880    2.1560 C   0  0  2  0  0  3  0  0  0  0  0  0
    6.9070   -4.0210    2.6790 N   0  0  0  0  0  0  0  0  0  0  0  0
    9.4150   -3.4510    0.7540 H   0  0  0  0  0  0  0  0  0  0  0  0
    6.5240   -3.5690    3.5240 H   0  0  0  0  0  0  0  0  0  0  0  0
    8.6110   -2.2650    2.8300 C   0  0  0  0  0  0  0  0  0  0  0  0
    8.9880   -1.1580    2.1640 C   0  0  0  0  0  0  0  0  0  0  0  0
    9.5420    0.0120    2.8680 C   0  0  0  0  0  0  0  0  0  0  0  0
    9.8130    1.2400    2.2470 C   0  0  0  0  0  3  0  0  0  0  0  0
   10.3560    2.2920    2.9800 C   0  0  0  0  0  3  0  0  0  0  0  0
   10.6050    2.0920    4.3220 C   0  0  0  0  0  3  0  0  0  0  0  0
   10.3320    0.9360    4.9570 N   0  0  0  0  0  0  0  0  0  0  0  0
    9.7950   -0.0790    4.2410 C   0  0  0  0  0  0  0  0  0  0  0  0
    9.4430   -1.2640    4.9320 N   0  0  0  0  0  0  0  0  0  0  0  0
    8.8220   -2.3210    4.3090 C   0  0  0  0  0  0  0  0  0  0  0  0
    8.4540   -3.3440    4.8920 O   0  0  0  0  0  0  0  0  0  0  0  0
    8.8850   -1.1150    0.7780 O   0  0  0  0  0  0  0  0  0  0  0  0
    9.4740   -0.4140    0.4300 H   0  0  0  0  0  0  0  0  0  0  0  0
    9.7130   -1.3280    6.3710 C   0  0  0  0  0  2  0  0  0  0  0  0
    8.6760   -0.6190    7.2570 C   0  0  0  0  0  2  0  0  0  0  0  0
    7.7240   -1.5630    8.0200 C   0  0  0  0  0  3  0  0  0  0  0  0
    6.4320   -1.8380    7.2450 C   0  0  0  0  0  1  0  0  0  0  0  0
    8.4240   -2.8980    8.2960 C   0  0  0  0  0  1  0  0  0  0  0  0
    3.9060   -8.1580    0.4320 N   0  0  0  0  0  0  0  0  0  0  0  0
    3.1320   -7.8530   -0.1590 H   0  0  0  0  0  0  0  0  0  0  0  0
    3.5840   -9.5860    1.2950 S   0  0  0  0  0  0  0  0  0  0  0  0
    3.6320  -10.6970    0.3710 O   0  0  0  0  0  0  0  0  0  0  0  0
    2.4200   -9.3080    2.1050 O   0  0  0  0  0  0  0  0  0  0  0  0
    5.0040   -9.6530    2.3870 C   0  0  0  0  0  2  0  0  0  0  0  0
    5.0750  -10.9450    3.1960 C   0  0  0  0  0  2  0  0  0  0  0  0
    4.0420  -10.0550    5.3610 C   0  0  0  0  0  1  0  0  0  0  0  0
    5.2250  -10.7590    4.7110 C   0  0  0  0  0  2  0  0  0  0  0  0
  1  2  1  0  0  0  0
  2  3  2  0  0  0  0
  4 12  1  0  0  0  0
  4  3  1  0  0  0  0
  5  4  2  0  0  0  0
  6  5  1  0  0  0  0
  6  1  2  0  0  0  0
  7  8  2  0  0  0  0
  7  5  1  0  0  0  0
  7 10  1  0  0  0  0
  9  7  2  0  0  0  0
 10 11  1  0  0  0  0
 11 12  1  0  0  0  0
 11 15  1  6  0  0  0
 12 14  1  0  0  0  0
 13 10  1  0  0  0  0
 15 24  1  0  0  0  0
 16 15  2  0  0  0  0
 16 17  1  0  0  0  0
 17 22  1  0  0  0  0
 18 17  2  0  0  0  0
 18 19  1  0  0  0  0
 19 20  2  0  0  0  0
 20 21  1  0  0  0  0
 22 23  1  0  0  0  0
 22 21  2  0  0  0  0
 23 28  1  0  0  0  0
 24 25  2  0  0  0  0
 24 23  1  0  0  0  0
 26 16  1  0  0  0  0
 27 26  1  0  0  0  0
 28 29  1  0  0  0  0
 29 30  1  0  0  0  0
 30 32  1  0  0  0  0
 31 30  1  0  0  0  0
 33  1  1  0  0  0  0
 33 35  1  0  0  0  0
 34 33  1  0  0  0  0
 35 37  2  0  0  0  0
 35 38  1  0  0  0  0
 36 35  2  0  0  0  0
 38 39  1  0  0  0  0
 39 41  1  0  0  0  0
 41 40  1  0  0  0  0
M  END
>  <minimizedAffinity>
-6.8797307

$$$$

 OpenBabel09122218413D

 41 44  0  0  1  0  0  0  0  0999 V2000
    1.7340   -6.5480    7.0180 C   0  0  0  0  0  0  0  0  0  0  0  0
    2.7280   -6.6600    7.9920 C   0  0  0  0  0  3  0  0  0  0  0  0
    3.9380   -5.9720    7.8550 C   0  0  0  0  0  3  0  0  0  0  0  0
    4.1670   -5.1470    6.7500 C   0  0  0  0  0  0  0  0  0  0  0  0
    3.1690   -5.0690    5.7930 C   0  0  0  0  0  0  0  0  0  0  0  0
    1.9540   -5.7590    5.8980 C   0  0  0  0  0  3  0  0  0  0  0  0
    3.4520   -4.0230    4.4300 S   0  0  0  0  0  0  0  0  0  0  0  0
    3.6090   -4.9000    3.2910 O   0  0  0  0  0  0  0  0  0  0  0  0
    2.3860   -3.0460    4.4610 O   0  0  0  0  0  0  0  0  0  0  0  0
    4.8360   -3.3000    4.7340 N   0  0  0  0  0  0  0  0  0  0  0  0
    5.6180   -3.5750    5.7440 C   0  0  2  0  0  3  0  0  0  0  0  0
    5.3290   -4.4540    6.6890 N   0  0  0  0  0  0  0  0  0  0  0  0
    5.1430   -2.5990    4.0720 H   0  0  0  0  0  0  0  0  0  0  0  0
    6.0230   -4.5780    7.4420 H   0  0  0  0  0  0  0  0  0  0  0  0
    6.9420   -2.8220    5.8260 C   0  0  0  0  0  0  0  0  0  0  0  0
    7.2850   -2.0300    6.8590 C   0  0  0  0  0  0  0  0  0  0  0  0
    8.5920   -1.3520    6.9070 C   0  0  0  0  0  0  0  0  0  0  0  0
    9.0610   -0.6370    8.0200 C   0  0  0  0  0  3  0  0  0  0  0  0
   10.3020   -0.0080    7.9780 C   0  0  0  0  0  3  0  0  0  0  0  0
   11.0500   -0.1170    6.8240 C   0  0  0  0  0  3  0  0  0  0  0  0
   10.6450   -0.8180    5.7480 N   0  0  0  0  0  0  0  0  0  0  0  0
    9.4420   -1.4360    5.7990 C   0  0  0  0  0  0  0  0  0  0  0  0
    9.0570   -2.2310    4.6910 N   0  0  0  0  0  0  0  0  0  0  0  0
    7.8910   -2.9590    4.6800 C   0  0  0  0  0  0  0  0  0  0  0  0
    7.5530   -3.7030    3.7550 O   0  0  0  0  0  0  0  0  0  0  0  0
    6.3840   -1.8140    7.8960 O   0  0  0  0  0  0  0  0  0  0  0  0
    6.6340   -1.0000    8.3800 H   0  0  0  0  0  0  0  0  0  0  0  0
    9.9700   -2.3060    3.5480 C   0  0  0  0  0  2  0  0  0  0  0  0
    9.4550   -1.6410    2.2610 C   0  0  0  0  0  2  0  0  0  0  0  0
   10.0020   -2.2520    0.9540 C   0  0  0  0  0  3  0  0  0  0  0  0
    9.2080   -3.4830    0.5090 C   0  0  0  0  0  1  0  0  0  0  0  0
    9.9570   -1.2080   -0.1680 C   0  0  0  0  0  1  0  0  0  0  0  0
    0.4730   -7.1510    7.2450 N   0  0  0  0  0  0  0  0  0  0  0  0
   -0.0050   -7.0050    8.1360 H   0  0  0  0  0  0  0  0  0  0  0  0
    0.1950   -8.6860    6.5680 S   0  0  0  0  0  0  0  0  0  0  0  0
   -0.6350   -9.4420    7.4790 O   0  0  0  0  0  0  0  0  0  0  0  0
    1.4840   -9.1640    6.1230 O   0  0  0  0  0  0  0  0  0  0  0  0
   -0.7560   -8.2490    5.1120 C   0  0  0  0  0  2  0  0  0  0  0  0
   -1.7050   -7.0770    5.3480 C   0  0  0  0  0  2  0  0  0  0  0  0
   -3.5660   -7.0260    7.1030 C   0  0  0  0  0  1  0  0  0  0  0  0
   -3.1440   -7.4670    5.7090 C   0  0  0  0  0  2  0  0  0  0  0  0
  1 33  1  0  0  0  0
  1  2  1  0  0  0  0
  3  2  2  0  0  0  0
  4  3  1  0  0  0  0
  5  6  1  0  0  0  0
  5  4  2  0  0  0  0
  6  1  2  0  0  0  0
  7  9  2  0  0  0  0
  7 10  1  0  0  0  0
  7  5  1  0  0  0  0
  8  7  2  0  0  0  0
 10 11  1  0  0  0  0
 11 15  1  1  0  0  0
 11 12  1  0  0  0  0
 12  4  1  0  0  0  0
 12 14  1  0  0  0  0
 13 10  1  0  0  0  0
 15 16  2  0  0  0  0
 16 17  1  0  0  0  0
 16 26  1  0  0  0  0
 17 18  1  0  0  0  0
 19 18  2  0  0  0  0
 20 19  1  0  0  0  0
 21 22  1  0  0  0  0
 21 20  2  0  0  0  0
 22 17  2  0  0  0  0
 23 22  1  0  0  0  0
 24 23  1  0  0  0  0
 24 15  1  0  0  0  0
 25 24  2  0  0  0  0
 26 27  1  0  0  0  0
 28 23  1  0  0  0  0
 29 28  1  0  0  0  0
 30 29  1  0  0  0  0
 31 30  1  0  0  0  0
 32 30  1  0  0  0  0
 33 34  1  0  0  0  0
 35 33  1  0  0  0  0
 35 36  2  0  0  0  0
 37 35  2  0  0  0  0
 38 39  1  0  0  0  0
 38 35  1  0  0  0  0
 39 41  1  0  0  0  0
 41 40  1  0  0  0  0
M  END
>  <minimizedAffinity>
-6.75463676

$$$$

 OpenBabel09122218413D

 41 44  0  0  1  0  0  0  0  0999 V2000
    5.9520   -5.9500    0.8720 C   0  0  0  0  0  0  0  0  0  0  0  0
    5.5790   -7.2830    0.6930 C   0  0  0  0  0  3  0  0  0  0  0  0
    4.7760   -7.9280    1.6400 C   0  0  0  0  0  3  0  0  0  0  0  0
    4.3180   -7.2450    2.7700 C   0  0  0  0  0  0  0  0  0  0  0  0
    4.7190   -5.9290    2.9280 C   0  0  0  0  0  0  0  0  0  0  0  0
    5.5360   -5.2630    2.0030 C   0  0  0  0  0  3  0  0  0  0  0  0
    4.1300   -5.0780    4.3270 S   0  0  0  0  0  0  0  0  0  0  0  0
    5.2830   -4.8740    5.1740 O   0  0  0  0  0  0  0  0  0  0  0  0
    3.3890   -3.9470    3.8120 O   0  0  0  0  0  0  0  0  0  0  0  0
    3.1240   -6.0840    5.0390 N   0  0  0  0  0  0  0  0  0  0  0  0
    2.9270   -7.3250    4.6800 C   0  0  2  0  0  3  0  0  0  0  0  0
    3.4940   -7.8920    3.6280 N   0  0  0  0  0  0  0  0  0  0  0  0
    2.6280   -5.7400    5.8520 H   0  0  0  0  0  0  0  0  0  0  0  0
    3.2530   -8.8770    3.4410 H   0  0  0  0  0  0  0  0  0  0  0  0
    1.9730   -8.1550    5.5330 C   0  0  0  0  0  0  0  0  0  0  0  0
    2.2890   -9.3590    6.0440 C   0  0  0  0  0  0  0  0  0  0  0  0
    1.3440  -10.1060    6.8930 C   0  0  0  0  0  0  0  0  0  0  0  0
    1.6710  -11.2900    7.5710 C   0  0  0  0  0  3  0  0  0  0  0  0
    0.7120  -11.9460    8.3390 C   0  0  0  0  0  3  0  0  0  0  0  0
   -0.5500  -11.3960    8.4180 C   0  0  0  0  0  3  0  0  0  0  0  0
   -0.8910  -10.2460    7.8040 N   0  0  0  0  0  0  0  0  0  0  0  0
    0.0480   -9.6080    7.0680 C   0  0  0  0  0  0  0  0  0  0  0  0
   -0.2980   -8.3630    6.4860 N   0  0  0  0  0  0  0  0  0  0  0  0
    0.6080   -7.6020    5.7870 C   0  0  0  0  0  0  0  0  0  0  0  0
    0.3550   -6.4900    5.3140 O   0  0  0  0  0  0  0  0  0  0  0  0
    3.5190   -9.9360    5.7500 O   0  0  0  0  0  0  0  0  0  0  0  0
    3.4730  -10.9010    5.9120 H   0  0  0  0  0  0  0  0  0  0  0  0
   -1.6600   -7.8630    6.6920 C   0  0  0  0  0  2  0  0  0  0  0  0
   -2.5230   -7.7910    5.4210 C   0  0  0  0  0  2  0  0  0  0  0  0
   -3.4750   -8.9890    5.2180 C   0  0  0  0  0  3  0  0  0  0  0  0
   -2.8510  -10.0880    4.3520 C   0  0  0  0  0  1  0  0  0  0  0  0
   -3.8540   -9.5910    6.5760 C   0  0  0  0  0  1  0  0  0  0  0  0
    6.6570   -5.2860   -0.1620 N   0  0  0  0  0  0  0  0  0  0  0  0
    6.3290   -5.3600   -1.1260 H   0  0  0  0  0  0  0  0  0  0  0  0
    8.3480   -5.1750   -0.0240 S   0  0  0  0  0  0  0  0  0  0  0  0
    8.8870   -4.8130   -1.3160 O   0  0  0  0  0  0  0  0  0  0  0  0
    8.7690   -6.3640    0.6800 O   0  0  0  0  0  0  0  0  0  0  0  0
    8.5080   -3.7890    1.1020 C   0  0  0  0  0  2  0  0  0  0  0  0
    9.7070   -2.8980    0.7870 C   0  0  0  0  0  2  0  0  0  0  0  0
    9.1020   -0.7520    2.0420 C   0  0  0  0  0  1  0  0  0  0  0  0
    9.4000   -1.3990    0.6960 C   0  0  0  0  0  2  0  0  0  0  0  0
  1  6  1  0  0  0  0
  2  1  2  0  0  0  0
  2  3  1  0  0  0  0
  3  4  2  0  0  0  0
  4  5  1  0  0  0  0
  4 12  1  0  0  0  0
  5  7  1  0  0  0  0
  6  5  2  0  0  0  0
  7 10  1  0  0  0  0
  7  8  2  0  0  0  0
  9  7  2  0  0  0  0
 10 13  1  0  0  0  0
 11 10  1  0  0  0  0
 11 15  1  6  0  0  0
 12 11  1  0  0  0  0
 14 12  1  0  0  0  0
 15 24  1  0  0  0  0
 15 16  2  0  0  0  0
 16 17  1  0  0  0  0
 17 22  2  0  0  0  0
 17 18  1  0  0  0  0
 18 19  2  0  0  0  0
 19 20  1  0  0  0  0
 21 20  2  0  0  0  0
 22 21  1  0  0  0  0
 23 28  1  0  0  0  0
 23 22  1  0  0  0  0
 24 23  1  0  0  0  0
 25 24  2  0  0  0  0
 26 27  1  0  0  0  0
 26 16  1  0  0  0  0
 29 28  1  0  0  0  0
 30 29  1  0  0  0  0
 30 32  1  0  0  0  0
 31 30  1  0  0  0  0
 33 35  1  0  0  0  0
 33  1  1  0  0  0  0
 34 33  1  0  0  0  0
 35 37  2  0  0  0  0
 35 38  1  0  0  0  0
 36 35  2  0  0  0  0
 39 38  1  0  0  0  0
 41 39  1  0  0  0  0
 41 40  1  0  0  0  0
M  END
>  <minimizedAffinity>
-6.57630253

$$$$

 OpenBabel09122218413D

 41 44  0  0  1  0  0  0  0  0999 V2000
    4.2620   -4.2620    4.8580 C   0  0  0  0  0  0  0  0  0  0  0  0
    3.0400   -3.6790    5.1970 C   0  0  0  0  0  3  0  0  0  0  0  0
    1.8910   -4.4660    5.3320 C   0  0  0  0  0  3  0  0  0  0  0  0
    1.9500   -5.8500    5.1490 C   0  0  0  0  0  0  0  0  0  0  0  0
    3.1730   -6.3970    4.7980 C   0  0  0  0  0  0  0  0  0  0  0  0
    4.3360   -5.6300    4.6410 C   0  0  0  0  0  3  0  0  0  0  0  0
    3.2440   -8.1240    4.5920 S   0  0  0  0  0  0  0  0  0  0  0  0
    3.4480   -8.3400    3.1770 O   0  0  0  0  0  0  0  0  0  0  0  0
    4.2190   -8.5910    5.5530 O   0  0  0  0  0  0  0  0  0  0  0  0
    1.8030   -8.6570    5.0040 N   0  0  0  0  0  0  0  0  0  0  0  0
    0.7800   -7.8990    5.2960 C   0  0  2  0  0  3  0  0  0  0  0  0
    0.8260   -6.5780    5.3500 N   0  0  0  0  0  0  0  0  0  0  0  0
    1.6680   -9.6600    5.0060 H   0  0  0  0  0  0  0  0  0  0  0  0
   -0.0470   -6.0890    5.6010 H   0  0  0  0  0  0  0  0  0  0  0  0
   -0.5420   -8.5970    5.5990 C   0  0  0  0  0  0  0  0  0  0  0  0
   -1.1320   -9.4710    4.7610 C   0  0  0  0  0  0  0  0  0  0  0  0
   -2.3920  -10.1460    5.1160 C   0  0  0  0  0  0  0  0  0  0  0  0
   -2.9710  -11.1710    4.3520 C   0  0  0  0  0  3  0  0  0  0  0  0
   -4.1770  -11.7450    4.7480 C   0  0  0  0  0  3  0  0  0  0  0  0
   -4.7690  -11.2850    5.9060 C   0  0  0  0  0  3  0  0  0  0  0  0
   -4.2280  -10.3240    6.6780 N   0  0  0  0  0  0  0  0  0  0  0  0
   -3.0510   -9.7770    6.2940 C   0  0  0  0  0  0  0  0  0  0  0  0
   -2.4540   -8.8200    7.1500 N   0  0  0  0  0  0  0  0  0  0  0  0
   -1.2230   -8.2660    6.8870 C   0  0  0  0  0  0  0  0  0  0  0  0
   -0.6510   -7.4710    7.6380 O   0  0  0  0  0  0  0  0  0  0  0  0
   -0.5640   -9.7290    3.5180 O   0  0  0  0  0  0  0  0  0  0  0  0
   -1.2430  -10.1100    2.9240 H   0  0  0  0  0  0  0  0  0  0  0  0
   -3.1640   -8.4590    8.3800 C   0  0  0  0  0  2  0  0  0  0  0  0
   -4.4120   -7.5850    8.1760 C   0  0  0  0  0  2  0  0  0  0  0  0
   -4.1270   -6.1630    7.6500 C   0  0  0  0  0  3  0  0  0  0  0  0
   -3.6850   -6.1620    6.1830 C   0  0  0  0  0  1  0  0  0  0  0  0
   -5.3850   -5.2960    7.7830 C   0  0  0  0  0  1  0  0  0  0  0  0
    5.4310   -3.4620    4.8530 N   0  0  0  0  0  0  0  0  0  0  0  0
    5.9840   -3.3800    3.9990 H   0  0  0  0  0  0  0  0  0  0  0  0
    6.3610   -3.4090    6.2750 S   0  0  0  0  0  0  0  0  0  0  0  0
    7.7560   -3.3370    5.9030 O   0  0  0  0  0  0  0  0  0  0  0  0
    5.8440   -4.4540    7.1280 O   0  0  0  0  0  0  0  0  0  0  0  0
    5.8420   -1.8370    6.9640 C   0  0  0  0  0  2  0  0  0  0  0  0
    4.6330   -1.9600    7.8880 C   0  0  0  0  0  2  0  0  0  0  0  0
    2.1560   -1.3320    7.7710 C   0  0  0  0  0  1  0  0  0  0  0  0
    3.5960   -0.8380    7.7570 C   0  0  0  0  0  2  0  0  0  0  0  0
  1  2  1  0  0  0  0
  2  3  2  0  0  0  0
  4  3  1  0  0  0  0
  4 12  1  0  0  0  0
  5  4  2  0  0  0  0
  6  5  1  0  0  0  0
  6  1  2  0  0  0  0
  7  5  1  0  0  0  0
  7 10  1  0  0  0  0
  7  9  2  0  0  0  0
  8  7  2  0  0  0  0
 10 13  1  0  0  0  0
 10 11  1  0  0  0  0
 11 12  1  0  0  0  0
 11 15  1  1  0  0  0
 12 14  1  0  0  0  0
 15 24  1  0  0  0  0
 16 17  1  0  0  0  0
 16 15  2  0  0  0  0
 17 22  1  0  0  0  0
 18 19  1  0  0  0  0
 18 17  2  0  0  0  0
 19 20  2  0  0  0  0
 20 21  1  0  0  0  0
 22 21  2  0  0  0  0
 22 23  1  0  0  0  0
 23 28  1  0  0  0  0
 24 23  1  0  0  0  0
 24 25  2  0  0  0  0
 26 16  1  0  0  0  0
 27 26  1  0  0  0  0
 29 28  1  0  0  0  0
 30 32  1  0  0  0  0
 30 29  1  0  0  0  0
 31 30  1  0  0  0  0
 33  1  1  0  0  0  0
 33 35  1  0  0  0  0
 34 33  1  0  0  0  0
 35 38  1  0  0  0  0
 35 37  2  0  0  0  0
 36 35  2  0  0  0  0
 38 39  1  0  0  0  0
 41 40  1  0  0  0  0
 41 39  1  0  0  0  0
M  END
>  <minimizedAffinity>
-6.51903725

$$$$

 OpenBabel09122218413D

 41 44  0  0  1  0  0  0  0  0999 V2000
    1.6010   -7.2480    5.3480 C   0  0  0  0  0  0  0  0  0  0  0  0
    2.5170   -8.0760    4.6970 C   0  0  0  0  0  3  0  0  0  0  0  0
    3.6630   -7.5380    4.1020 C   0  0  0  0  0  3  0  0  0  0  0  0
    3.9200   -6.1650    4.1640 C   0  0  0  0  0  0  0  0  0  0  0  0
    2.9850   -5.3680    4.8030 C   0  0  0  0  0  0  0  0  0  0  0  0
    1.8210   -5.8790    5.3940 C   0  0  0  0  0  3  0  0  0  0  0  0
    3.3220   -3.6620    4.8950 S   0  0  0  0  0  0  0  0  0  0  0  0
    2.3520   -3.0260    4.0320 O   0  0  0  0  0  0  0  0  0  0  0  0
    3.3650   -3.3490    6.3060 O   0  0  0  0  0  0  0  0  0  0  0  0
    4.7750   -3.4860    4.2730 N   0  0  0  0  0  0  0  0  0  0  0  0
    5.4670   -4.4380    3.7040 C   0  0  2  0  0  3  0  0  0  0  0  0
    5.0720   -5.6970    3.6270 N   0  0  0  0  0  0  0  0  0  0  0  0
    5.1750   -2.5560    4.2940 H   0  0  0  0  0  0  0  0  0  0  0  0
    5.7100   -6.3610    3.1600 H   0  0  0  0  0  0  0  0  0  0  0  0
    6.8150   -4.0560    3.1020 C   0  0  0  0  0  0  0  0  0  0  0  0
    7.1830   -4.3620    1.8440 C   0  0  0  0  0  0  0  0  0  0  0  0
    8.4840   -3.9390    1.2980 C   0  0  0  0  0  0  0  0  0  0  0  0
    8.8570   -4.0990   -0.0450 C   0  0  0  0  0  3  0  0  0  0  0  0
   10.1160   -3.6890   -0.4780 C   0  0  0  0  0  3  0  0  0  0  0  0
   10.9680   -3.1180    0.4440 C   0  0  0  0  0  3  0  0  0  0  0  0
   10.6330   -2.9220    1.7340 N   0  0  0  0  0  0  0  0  0  0  0  0
    9.4050   -3.3130    2.1460 C   0  0  0  0  0  0  0  0  0  0  0  0
    9.0350   -3.0370    3.4850 N   0  0  0  0  0  0  0  0  0  0  0  0
    7.7840   -3.3250    3.9760 C   0  0  0  0  0  0  0  0  0  0  0  0
    7.4120   -3.0490    5.1190 O   0  0  0  0  0  0  0  0  0  0  0  0
    6.3370   -5.1190    1.0400 O   0  0  0  0  0  0  0  0  0  0  0  0
    6.8540   -5.5180    0.3100 H   0  0  0  0  0  0  0  0  0  0  0  0
   10.0170   -2.3750    4.3470 C   0  0  0  0  0  2  0  0  0  0  0  0
    9.8060   -0.8630    4.5300 C   0  0  0  0  0  2  0  0  0  0  0  0
   10.3630   -0.2870    5.8480 C   0  0  0  0  0  3  0  0  0  0  0  0
   10.7780    1.1810    5.7130 C   0  0  0  0  0  1  0  0  0  0  0  0
    9.3050   -0.3960    6.9530 C   0  0  0  0  0  1  0  0  0  0  0  0
    0.5190   -7.8330    6.0500 N   0  0  0  0  0  0  0  0  0  0  0  0
    0.6700   -8.2180    6.9830 H   0  0  0  0  0  0  0  0  0  0  0  0
   -0.6490   -8.6760    5.1460 S   0  0  0  0  0  0  0  0  0  0  0  0
   -0.2290  -10.0550    5.0350 O   0  0  0  0  0  0  0  0  0  0  0  0
   -0.9220   -7.8580    3.9870 O   0  0  0  0  0  0  0  0  0  0  0  0
   -2.0680   -8.5670    6.2370 C   0  0  0  0  0  2  0  0  0  0  0  0
   -3.2390   -7.8070    5.6190 C   0  0  0  0  0  2  0  0  0  0  0  0
   -4.1480   -6.8050    7.7910 C   0  0  0  0  0  1  0  0  0  0  0  0
   -3.6640   -6.5410    6.3720 C   0  0  0  0  0  2  0  0  0  0  0  0
  1  6  1  0  0  0  0
  1 33  1  0  0  0  0
  2  1  2  0  0  0  0
  3  4  2  0  0  0  0
  3  2  1  0  0  0  0
  4  5  1  0  0  0  0
  5  7  1  0  0  0  0
  5  6  2  0  0  0  0
  7  9  2  0  0  0  0
  8  7  2  0  0  0  0
 10 13  1  0  0  0  0
 10  7  1  0  0  0  0
 11 15  1  1  0  0  0
 11 10  1  0  0  0  0
 12 11  1  0  0  0  0
 12  4  1  0  0  0  0
 14 12  1  0  0  0  0
 15 24  1  0  0  0  0
 16 15  2  0  0  0  0
 17 16  1  0  0  0  0
 17 22  1  0  0  0  0
 18 17  2  0  0  0  0
 19 18  1  0  0  0  0
 19 20  2  0  0  0  0
 20 21  1  0  0  0  0
 21 22  2  0  0  0  0
 22 23  1  0  0  0  0
 23 24  1  0  0  0  0
 23 28  1  0  0  0  0
 24 25  2  0  0  0  0
 26 16  1  0  0  0  0
 27 26  1  0  0  0  0
 28 29  1  0  0  0  0
 29 30  1  0  0  0  0
 30 32  1  0  0  0  0
 31 30  1  0  0  0  0
 33 34  1  0  0  0  0
 35 33  1  0  0  0  0
 35 38  1  0  0  0  0
 36 35  2  0  0  0  0
 37 35  2  0  0  0  0
 39 38  1  0  0  0  0
 39 41  1  0  0  0  0
 41 40  1  0  0  0  0
M  END
>  <minimizedAffinity>
-6.50812197

$$$$

 OpenBabel09122218413D

 41 44  0  0  1  0  0  0  0  0999 V2000
    1.5270   -7.0880    5.1180 C   0  0  0  0  0  0  0  0  0  0  0  0
    1.7550   -5.7360    5.3780 C   0  0  0  0  0  3  0  0  0  0  0  0
    2.9150   -5.1090    4.9120 C   0  0  0  0  0  3  0  0  0  0  0  0
    3.8570   -5.8190    4.1620 C   0  0  0  0  0  0  0  0  0  0  0  0
    3.6110   -7.1630    3.9340 C   0  0  0  0  0  0  0  0  0  0  0  0
    2.4640   -7.8200    4.4020 C   0  0  0  0  0  3  0  0  0  0  0  0
    4.7770   -8.0370    2.9820 S   0  0  0  0  0  0  0  0  0  0  0  0
    5.4190   -8.9530    3.8970 O   0  0  0  0  0  0  0  0  0  0  0  0
    4.0490   -8.5350    1.8350 O   0  0  0  0  0  0  0  0  0  0  0  0
    5.8300   -6.9460    2.5010 N   0  0  0  0  0  0  0  0  0  0  0  0
    5.8430   -5.6970    2.8850 C   0  0  2  0  0  3  0  0  0  0  0  0
    4.9350   -5.1560    3.6800 N   0  0  0  0  0  0  0  0  0  0  0  0
    6.5630   -7.2590    1.8770 H   0  0  0  0  0  0  0  0  0  0  0  0
    5.0460   -4.1550    3.9060 H   0  0  0  0  0  0  0  0  0  0  0  0
    6.9790   -4.8200    2.3690 C   0  0  0  0  0  0  0  0  0  0  0  0
    7.5430   -4.9680    1.1560 C   0  0  0  0  0  0  0  0  0  0  0  0
    8.6140   -4.0710    0.6910 C   0  0  0  0  0  0  0  0  0  0  0  0
    9.1340   -4.0850   -0.6120 C   0  0  0  0  0  3  0  0  0  0  0  0
   10.1620   -3.2150   -0.9670 C   0  0  0  0  0  3  0  0  0  0  0  0
   10.6390   -2.3440   -0.0110 C   0  0  0  0  0  3  0  0  0  0  0  0
   10.1450   -2.2830    1.2410 N   0  0  0  0  0  0  0  0  0  0  0  0
    9.1390   -3.1230    1.5770 C   0  0  0  0  0  0  0  0  0  0  0  0
    8.5780   -3.0020    2.8720 N   0  0  0  0  0  0  0  0  0  0  0  0
    7.5030   -3.7560    3.2800 C   0  0  0  0  0  0  0  0  0  0  0  0
    6.9560   -3.6370    4.3800 O   0  0  0  0  0  0  0  0  0  0  0  0
    7.1350   -6.0060    0.3250 O   0  0  0  0  0  0  0  0  0  0  0  0
    7.8270   -6.1760   -0.3460 H   0  0  0  0  0  0  0  0  0  0  0  0
    9.1430   -1.9970    3.7750 C   0  0  0  0  0  2  0  0  0  0  0  0
   10.1680   -2.5360    4.7860 C   0  0  0  0  0  2  0  0  0  0  0  0
   10.7690   -1.4730    5.7280 C   0  0  0  0  0  3  0  0  0  0  0  0
   10.2250   -0.0690    5.4450 C   0  0  0  0  0  1  0  0  0  0  0  0
   10.4610   -1.8330    7.1860 C   0  0  0  0  0  1  0  0  0  0  0  0
    0.2870   -7.6640    5.4910 N   0  0  0  0  0  0  0  0  0  0  0  0
   -0.5780   -7.3080    5.0830 H   0  0  0  0  0  0  0  0  0  0  0  0
    0.1140   -8.2030    7.0940 S   0  0  0  0  0  0  0  0  0  0  0  0
   -0.2970   -7.0820    7.9090 O   0  0  0  0  0  0  0  0  0  0  0  0
    1.3030   -8.9720    7.3860 O   0  0  0  0  0  0  0  0  0  0  0  0
   -1.2500   -9.3530    6.9220 C   0  0  0  0  0  2  0  0  0  0  0  0
   -2.6130   -8.6970    7.1230 C   0  0  0  0  0  2  0  0  0  0  0  0
   -3.6510   -6.4730    6.3990 C   0  0  0  0  0  1  0  0  0  0  0  0
   -3.0930   -7.8200    5.9600 C   0  0  0  0  0  2  0  0  0  0  0  0
  1  2  1  0  0  0  0
  1 33  1  0  0  0  0
  3  2  2  0  0  0  0
  4  3  1  0  0  0  0
  5  4  2  0  0  0  0
  5  6  1  0  0  0  0
  6  1  2  0  0  0  0
  7  8  2  0  0  0  0
  7  5  1  0  0  0  0
  9  7  2  0  0  0  0
 10 11  1  0  0  0  0
 10  7  1  0  0  0  0
 11 15  1  6  0  0  0
 11 12  1  0  0  0  0
 12 14  1  0  0  0  0
 12  4  1  0  0  0  0
 13 10  1  0  0  0  0
 15 24  1  0  0  0  0
 16 15  2  0  0  0  0
 17 16  1  0  0  0  0
 17 22  1  0  0  0  0
 18 17  2  0  0  0  0
 19 18  1  0  0  0  0
 19 20  2  0  0  0  0
 20 21  1  0  0  0  0
 21 22  2  0  0  0  0
 22 23  1  0  0  0  0
 23 24  1  0  0  0  0
 23 28  1  0  0  0  0
 24 25  2  0  0  0  0
 26 16  1  0  0  0  0
 27 26  1  0  0  0  0
 28 29  1  0  0  0  0
 29 30  1  0  0  0  0
 30 32  1  0  0  0  0
 31 30  1  0  0  0  0
 33 35  1  0  0  0  0
 34 33  1  0  0  0  0
 35 37  2  0  0  0  0
 35 36  2  0  0  0  0
 38 35  1  0  0  0  0
 38 39  1  0  0  0  0
 41 40  1  0  0  0  0
 41 39  1  0  0  0  0
M  END
>  <minimizedAffinity>
-6.37935448

$$$$

 OpenBabel09122218413D

 41 44  0  0  1  0  0  0  0  0999 V2000
    1.6900   -6.4980    7.1320 C   0  0  0  0  0  0  0  0  0  0  0  0
    2.6870   -6.5940    8.1040 C   0  0  0  0  0  3  0  0  0  0  0  0
    3.9020   -5.9210    7.9430 C   0  0  0  0  0  3  0  0  0  0  0  0
    4.1330   -5.1260    6.8170 C   0  0  0  0  0  0  0  0  0  0  0  0
    3.1320   -5.0650    5.8620 C   0  0  0  0  0  0  0  0  0  0  0  0
    1.9110   -5.7410    5.9900 C   0  0  0  0  0  3  0  0  0  0  0  0
    3.4180   -4.0580    4.4710 S   0  0  0  0  0  0  0  0  0  0  0  0
    3.5630   -4.9660    3.3550 O   0  0  0  0  0  0  0  0  0  0  0  0
    2.3610   -3.0710    4.4800 O   0  0  0  0  0  0  0  0  0  0  0  0
    4.8100   -3.3390    4.7500 N   0  0  0  0  0  0  0  0  0  0  0  0
    5.5940   -3.5950    5.7640 C   0  0  2  0  0  3  0  0  0  0  0  0
    5.3010   -4.4450    6.7330 N   0  0  0  0  0  0  0  0  0  0  0  0
    5.1200   -2.6580    4.0690 H   0  0  0  0  0  0  0  0  0  0  0  0
    5.9980   -4.5560    7.4860 H   0  0  0  0  0  0  0  0  0  0  0  0
    6.9240   -2.8510    5.8210 C   0  0  0  0  0  0  0  0  0  0  0  0
    7.3080   -2.0900    6.8620 C   0  0  0  0  0  0  0  0  0  0  0  0
    8.6210   -1.4210    6.8840 C   0  0  0  0  0  0  0  0  0  0  0  0
    9.1320   -0.7400    7.9990 C   0  0  0  0  0  3  0  0  0  0  0  0
   10.3750   -0.1170    7.9310 C   0  0  0  0  0  3  0  0  0  0  0  0
   11.0820   -0.1970    6.7500 C   0  0  0  0  0  3  0  0  0  0  0  0
   10.6350   -0.8660    5.6690 N   0  0  0  0  0  0  0  0  0  0  0  0
    9.4310   -1.4790    5.7450 C   0  0  0  0  0  0  0  0  0  0  0  0
    9.0030   -2.2390    4.6290 N   0  0  0  0  0  0  0  0  0  0  0  0
    7.8330   -2.9610    4.6380 C   0  0  0  0  0  0  0  0  0  0  0  0
    7.4570   -3.6760    3.7050 O   0  0  0  0  0  0  0  0  0  0  0  0
    6.4450   -1.8990    7.9360 O   0  0  0  0  0  0  0  0  0  0  0  0
    6.7170   -1.1000    8.4330 H   0  0  0  0  0  0  0  0  0  0  0  0
    9.8750   -2.2870    3.4530 C   0  0  0  0  0  2  0  0  0  0  0  0
    9.2890   -1.6470    2.1840 C   0  0  0  0  0  2  0  0  0  0  0  0
   10.0460   -1.9820    0.8820 C   0  0  0  0  0  3  0  0  0  0  0  0
    9.5030   -3.2410    0.2000 C   0  0  0  0  0  1  0  0  0  0  0  0
    9.9400   -0.8080   -0.0990 C   0  0  0  0  0  1  0  0  0  0  0  0
    0.4250   -7.0850    7.3800 N   0  0  0  0  0  0  0  0  0  0  0  0
    0.1040   -7.2080    8.3420 H   0  0  0  0  0  0  0  0  0  0  0  0
   -0.1020   -8.3090    6.3240 S   0  0  0  0  0  0  0  0  0  0  0  0
   -0.4310   -7.7030    5.0530 O   0  0  0  0  0  0  0  0  0  0  0  0
   -1.0560   -9.0960    7.0710 O   0  0  0  0  0  0  0  0  0  0  0  0
    1.3940   -9.2820    6.1560 C   0  0  0  0  0  2  0  0  0  0  0  0
    2.0000   -9.2090    4.7570 C   0  0  0  0  0  2  0  0  0  0  0  0
    4.0960   -8.4450    3.5050 C   0  0  0  0  0  1  0  0  0  0  0  0
    3.5320   -9.1860    4.7090 C   0  0  0  0  0  2  0  0  0  0  0  0
  1 33  1  0  0  0  0
  1  2  1  0  0  0  0
  3  2  2  0  0  0  0
  4  3  1  0  0  0  0
  5  6  1  0  0  0  0
  5  4  2  0  0  0  0
  6  1  2  0  0  0  0
  7  9  2  0  0  0  0
  7 10  1  0  0  0  0
  7  5  1  0  0  0  0
  8  7  2  0  0  0  0
 10 11  1  0  0  0  0
 11 15  1  1  0  0  0
 11 12  1  0  0  0  0
 12  4  1  0  0  0  0
 12 14  1  0  0  0  0
 13 10  1  0  0  0  0
 15 16  2  0  0  0  0
 16 17  1  0  0  0  0
 16 26  1  0  0  0  0
 17 18  1  0  0  0  0
 19 18  2  0  0  0  0
 20 19  1  0  0  0  0
 21 22  1  0  0  0  0
 21 20  2  0  0  0  0
 22 17  2  0  0  0  0
 23 24  1  0  0  0  0
 23 22  1  0  0  0  0
 24 15  1  0  0  0  0
 25 24  2  0  0  0  0
 26 27  1  0  0  0  0
 28 23  1  0  0  0  0
 29 28  1  0  0  0  0
 30 29  1  0  0  0  0
 31 30  1  0  0  0  0
 32 30  1  0  0  0  0
 33 34  1  0  0  0  0
 35 37  2  0  0  0  0
 35 33  1  0  0  0  0
 36 35  2  0  0  0  0
 38 35  1  0  0  0  0
 39 38  1  0  0  0  0
 40 41  1  0  0  0  0
 41 39  1  0  0  0  0
M  END
>  <minimizedAffinity>
-6.2563982

$$$$

 OpenBabel09122218413D

 41 44  0  0  1  0  0  0  0  0999 V2000
    4.4560   -7.3050    1.4380 C   0  0  0  0  0  0  0  0  0  0  0  0
    4.0710   -6.5600    2.5540 C   0  0  0  0  0  3  0  0  0  0  0  0
    4.8760   -5.5170    3.0230 C   0  0  0  0  0  3  0  0  0  0  0  0
    6.0700   -5.1900    2.3720 C   0  0  0  0  0  0  0  0  0  0  0  0
    6.4330   -5.9570    1.2780 C   0  0  0  0  0  0  0  0  0  0  0  0
    5.6520   -7.0180    0.7970 C   0  0  0  0  0  3  0  0  0  0  0  0
    7.9090   -5.5320    0.4610 S   0  0  0  0  0  0  0  0  0  0  0  0
    8.8310   -6.6110    0.7340 O   0  0  0  0  0  0  0  0  0  0  0  0
    7.5260   -5.2210   -0.8990 O   0  0  0  0  0  0  0  0  0  0  0  0
    8.4210   -4.2070    1.1770 N   0  0  0  0  0  0  0  0  0  0  0  0
    7.8790   -3.6740    2.2400 C   0  0  2  0  0  3  0  0  0  0  0  0
    6.7860   -4.1340    2.8260 N   0  0  0  0  0  0  0  0  0  0  0  0
    9.2490   -3.7690    0.7950 H   0  0  0  0  0  0  0  0  0  0  0  0
    6.4480   -3.6210    3.6550 H   0  0  0  0  0  0  0  0  0  0  0  0
    8.5580   -2.4400    2.8250 C   0  0  0  0  0  0  0  0  0  0  0  0
    8.7400   -2.2440    4.1440 C   0  0  0  0  0  0  0  0  0  0  0  0
    9.4350   -1.0510    4.6570 C   0  0  0  0  0  0  0  0  0  0  0  0
    9.7820   -0.8670    6.0030 C   0  0  0  0  0  3  0  0  0  0  0  0
   10.4210    0.3010    6.4100 C   0  0  0  0  0  3  0  0  0  0  0  0
   10.7070    1.2550    5.4560 C   0  0  0  0  0  3  0  0  0  0  0  0
   10.4140    1.1000    4.1500 N   0  0  0  0  0  0  0  0  0  0  0  0
    9.8020   -0.0410    3.7590 C   0  0  0  0  0  0  0  0  0  0  0  0
    9.5640   -0.2260    2.3750 N   0  0  0  0  0  0  0  0  0  0  0  0
    9.0200   -1.3840    1.8720 C   0  0  0  0  0  0  0  0  0  0  0  0
    8.8490   -1.5990    0.6690 O   0  0  0  0  0  0  0  0  0  0  0  0
    8.2410   -3.1680    5.0560 O   0  0  0  0  0  0  0  0  0  0  0  0
    8.1650   -2.7460    5.9370 H   0  0  0  0  0  0  0  0  0  0  0  0
    9.9660    0.8440    1.4590 C   0  0  0  0  0  2  0  0  0  0  0  0
    9.4700    2.2480    1.8440 C   0  0  0  0  0  2  0  0  0  0  0  0
   10.3350    3.4080    1.3080 C   0  0  0  0  0  3  0  0  0  0  0  0
    9.6350    4.1870    0.1900 C   0  0  0  0  0  1  0  0  0  0  0  0
   10.6680    4.3790    2.4470 C   0  0  0  0  0  1  0  0  0  0  0  0
    3.5630   -8.2700    0.9100 N   0  0  0  0  0  0  0  0  0  0  0  0
    2.6350   -7.9800    0.5950 H   0  0  0  0  0  0  0  0  0  0  0  0
    3.5990   -9.8330    1.5770 S   0  0  0  0  0  0  0  0  0  0  0  0
    4.7620   -9.9360    2.4300 O   0  0  0  0  0  0  0  0  0  0  0  0
    3.3680  -10.7410    0.4760 O   0  0  0  0  0  0  0  0  0  0  0  0
    2.1160   -9.8090    2.5840 C   0  0  0  0  0  2  0  0  0  0  0  0
    2.3980   -9.5180    4.0550 C   0  0  0  0  0  2  0  0  0  0  0  0
    2.2010   -7.5350    5.6590 C   0  0  0  0  0  1  0  0  0  0  0  0
    1.4810   -8.4730    4.7010 C   0  0  0  0  0  2  0  0  0  0  0  0
  1  2  1  0  0  0  0
  2  3  2  0  0  0  0
  4 12  1  0  0  0  0
  4  3  1  0  0  0  0
  5  4  2  0  0  0  0
  6  5  1  0  0  0  0
  6  1  2  0  0  0  0
  7  8  2  0  0  0  0
  7 10  1  0  0  0  0
  7  5  1  0  0  0  0
  9  7  2  0  0  0  0
 10 11  1  0  0  0  0
 11 15  1  6  0  0  0
 11 12  1  0  0  0  0
 12 14  1  0  0  0  0
 13 10  1  0  0  0  0
 15 16  2  0  0  0  0
 16 17  1  0  0  0  0
 16 26  1  0  0  0  0
 17 18  1  0  0  0  0
 18 19  2  0  0  0  0
 20 19  1  0  0  0  0
 21 20  2  0  0  0  0
 22 21  1  0  0  0  0
 22 17  2  0  0  0  0
 23 22  1  0  0  0  0
 24 23  1  0  0  0  0
 24 15  1  0  0  0  0
 25 24  2  0  0  0  0
 26 27  1  0  0  0  0
 28 29  1  0  0  0  0
 28 23  1  0  0  0  0
 30 29  1  0  0  0  0
 30 32  1  0  0  0  0
 31 30  1  0  0  0  0
 33  1  1  0  0  0  0
 33 35  1  0  0  0  0
 34 33  1  0  0  0  0
 35 36  2  0  0  0  0
 35 38  1  0  0  0  0
 37 35  2  0  0  0  0
 38 39  1  0  0  0  0
 39 41  1  0  0  0  0
 41 40  1  0  0  0  0
M  END
>  <minimizedAffinity>
-6.23077011

$$$$
