
 OpenBabel09122222393D

 41 44  0  0  1  0  0  0  0  0999 V2000
    1.6010   -7.2480    5.3480 C   0  0  0  0  0  0  0  0  0  0  0  0
    2.5170   -8.0760    4.6970 C   0  0  0  0  0  3  0  0  0  0  0  0
    3.6630   -7.5380    4.1020 C   0  0  0  0  0  3  0  0  0  0  0  0
    3.9200   -6.1650    4.1640 C   0  0  0  0  0  0  0  0  0  0  0  0
    2.9850   -5.3680    4.8030 C   0  0  0  0  0  0  0  0  0  0  0  0
    1.8210   -5.8790    5.3940 C   0  0  0  0  0  3  0  0  0  0  0  0
    3.3220   -3.6620    4.8950 S   0  0  0  0  0  0  0  0  0  0  0  0
    2.3520   -3.0260    4.0320 O   0  0  0  0  0  0  0  0  0  0  0  0
    3.3650   -3.3490    6.3060 O   0  0  0  0  0  0  0  0  0  0  0  0
    4.7750   -3.4860    4.2730 N   0  0  0  0  0  0  0  0  0  0  0  0
    5.4670   -4.4380    3.7040 C   0  0  2  0  0  3  0  0  0  0  0  0
    5.0720   -5.6970    3.6270 N   0  0  0  0  0  0  0  0  0  0  0  0
    5.1750   -2.5560    4.2940 H   0  0  0  0  0  0  0  0  0  0  0  0
    5.7100   -6.3610    3.1600 H   0  0  0  0  0  0  0  0  0  0  0  0
    6.8150   -4.0560    3.1020 C   0  0  0  0  0  0  0  0  0  0  0  0
    7.1830   -4.3620    1.8440 C   0  0  0  0  0  0  0  0  0  0  0  0
    8.4840   -3.9390    1.2980 C   0  0  0  0  0  0  0  0  0  0  0  0
    8.8570   -4.0990   -0.0450 C   0  0  0  0  0  3  0  0  0  0  0  0
   10.1160   -3.6890   -0.4780 C   0  0  0  0  0  3  0  0  0  0  0  0
   10.9680   -3.1180    0.4440 C   0  0  0  0  0  3  0  0  0  0  0  0
   10.6330   -2.9220    1.7340 N   0  0  0  0  0  0  0  0  0  0  0  0
    9.4050   -3.3130    2.1460 C   0  0  0  0  0  0  0  0  0  0  0  0
    9.0350   -3.0370    3.4850 N   0  0  0  0  0  0  0  0  0  0  0  0
    7.7840   -3.3250    3.9760 C   0  0  0  0  0  0  0  0  0  0  0  0
    7.4120   -3.0490    5.1190 O   0  0  0  0  0  0  0  0  0  0  0  0
    6.3370   -5.1190    1.0400 O   0  0  0  0  0  0  0  0  0  0  0  0
    6.8540   -5.5180    0.3100 H   0  0  0  0  0  0  0  0  0  0  0  0
   10.0170   -2.3750    4.3470 C   0  0  0  0  0  2  0  0  0  0  0  0
    9.8060   -0.8630    4.5300 C   0  0  0  0  0  2  0  0  0  0  0  0
   10.3630   -0.2870    5.8480 C   0  0  0  0  0  3  0  0  0  0  0  0
   10.7780    1.1810    5.7130 C   0  0  0  0  0  1  0  0  0  0  0  0
    9.3050   -0.3960    6.9530 C   0  0  0  0  0  1  0  0  0  0  0  0
    0.5190   -7.8330    6.0500 N   0  0  0  0  0  0  0  0  0  0  0  0
    0.6700   -8.2180    6.9830 H   0  0  0  0  0  0  0  0  0  0  0  0
   -0.6490   -8.6760    5.1460 S   0  0  0  0  0  0  0  0  0  0  0  0
   -0.2290  -10.0550    5.0350 O   0  0  0  0  0  0  0  0  0  0  0  0
   -0.9220   -7.8580    3.9870 O   0  0  0  0  0  0  0  0  0  0  0  0
   -2.0680   -8.5670    6.2370 C   0  0  0  0  0  2  0  0  0  0  0  0
   -3.2390   -7.8070    5.6190 C   0  0  0  0  0  2  0  0  0  0  0  0
   -4.1480   -6.8050    7.7910 C   0  0  0  0  0  1  0  0  0  0  0  0
   -3.6640   -6.5410    6.3720 C   0  0  0  0  0  2  0  0  0  0  0  0
  1  6  1  0  0  0  0
  1 33  1  0  0  0  0
  2  1  2  0  0  0  0
  3  4  2  0  0  0  0
  3  2  1  0  0  0  0
  4  5  1  0  0  0  0
  5  7  1  0  0  0  0
  5  6  2  0  0  0  0
  7  9  2  0  0  0  0
  8  7  2  0  0  0  0
 10 13  1  0  0  0  0
 10  7  1  0  0  0  0
 11 15  1  1  0  0  0
 11 10  1  0  0  0  0
 12 11  1  0  0  0  0
 12  4  1  0  0  0  0
 14 12  1  0  0  0  0
 15 24  1  0  0  0  0
 16 15  2  0  0  0  0
 17 16  1  0  0  0  0
 17 22  1  0  0  0  0
 18 17  2  0  0  0  0
 19 18  1  0  0  0  0
 19 20  2  0  0  0  0
 20 21  1  0  0  0  0
 21 22  2  0  0  0  0
 22 23  1  0  0  0  0
 23 24  1  0  0  0  0
 23 28  1  0  0  0  0
 24 25  2  0  0  0  0
 26 16  1  0  0  0  0
 27 26  1  0  0  0  0
 28 29  1  0  0  0  0
 29 30  1  0  0  0  0
 30 32  1  0  0  0  0
 31 30  1  0  0  0  0
 33 34  1  0  0  0  0
 35 33  1  0  0  0  0
 35 38  1  0  0  0  0
 36 35  2  0  0  0  0
 37 35  2  0  0  0  0
 39 38  1  0  0  0  0
 39 41  1  0  0  0  0
 41 40  1  0  0  0  0
M  END
>  <minimizedAffinity>
-6.50812197

$$$$
