
 OpenBabel09122222393D

 41 44  0  0  1  0  0  0  0  0999 V2000
    4.4560   -7.3050    1.4380 C   0  0  0  0  0  0  0  0  0  0  0  0
    4.0710   -6.5600    2.5540 C   0  0  0  0  0  3  0  0  0  0  0  0
    4.8760   -5.5170    3.0230 C   0  0  0  0  0  3  0  0  0  0  0  0
    6.0700   -5.1900    2.3720 C   0  0  0  0  0  0  0  0  0  0  0  0
    6.4330   -5.9570    1.2780 C   0  0  0  0  0  0  0  0  0  0  0  0
    5.6520   -7.0180    0.7970 C   0  0  0  0  0  3  0  0  0  0  0  0
    7.9090   -5.5320    0.4610 S   0  0  0  0  0  0  0  0  0  0  0  0
    8.8310   -6.6110    0.7340 O   0  0  0  0  0  0  0  0  0  0  0  0
    7.5260   -5.2210   -0.8990 O   0  0  0  0  0  0  0  0  0  0  0  0
    8.4210   -4.2070    1.1770 N   0  0  0  0  0  0  0  0  0  0  0  0
    7.8790   -3.6740    2.2400 C   0  0  2  0  0  3  0  0  0  0  0  0
    6.7860   -4.1340    2.8260 N   0  0  0  0  0  0  0  0  0  0  0  0
    9.2490   -3.7690    0.7950 H   0  0  0  0  0  0  0  0  0  0  0  0
    6.4480   -3.6210    3.6550 H   0  0  0  0  0  0  0  0  0  0  0  0
    8.5580   -2.4400    2.8250 C   0  0  0  0  0  0  0  0  0  0  0  0
    8.7400   -2.2440    4.1440 C   0  0  0  0  0  0  0  0  0  0  0  0
    9.4350   -1.0510    4.6570 C   0  0  0  0  0  0  0  0  0  0  0  0
    9.7820   -0.8670    6.0030 C   0  0  0  0  0  3  0  0  0  0  0  0
   10.4210    0.3010    6.4100 C   0  0  0  0  0  3  0  0  0  0  0  0
   10.7070    1.2550    5.4560 C   0  0  0  0  0  3  0  0  0  0  0  0
   10.4140    1.1000    4.1500 N   0  0  0  0  0  0  0  0  0  0  0  0
    9.8020   -0.0410    3.7590 C   0  0  0  0  0  0  0  0  0  0  0  0
    9.5640   -0.2260    2.3750 N   0  0  0  0  0  0  0  0  0  0  0  0
    9.0200   -1.3840    1.8720 C   0  0  0  0  0  0  0  0  0  0  0  0
    8.8490   -1.5990    0.6690 O   0  0  0  0  0  0  0  0  0  0  0  0
    8.2410   -3.1680    5.0560 O   0  0  0  0  0  0  0  0  0  0  0  0
    8.1650   -2.7460    5.9370 H   0  0  0  0  0  0  0  0  0  0  0  0
    9.9660    0.8440    1.4590 C   0  0  0  0  0  2  0  0  0  0  0  0
    9.4700    2.2480    1.8440 C   0  0  0  0  0  2  0  0  0  0  0  0
   10.3350    3.4080    1.3080 C   0  0  0  0  0  3  0  0  0  0  0  0
    9.6350    4.1870    0.1900 C   0  0  0  0  0  1  0  0  0  0  0  0
   10.6680    4.3790    2.4470 C   0  0  0  0  0  1  0  0  0  0  0  0
    3.5630   -8.2700    0.9100 N   0  0  0  0  0  0  0  0  0  0  0  0
    2.6350   -7.9800    0.5950 H   0  0  0  0  0  0  0  0  0  0  0  0
    3.5990   -9.8330    1.5770 S   0  0  0  0  0  0  0  0  0  0  0  0
    4.7620   -9.9360    2.4300 O   0  0  0  0  0  0  0  0  0  0  0  0
    3.3680  -10.7410    0.4760 O   0  0  0  0  0  0  0  0  0  0  0  0
    2.1160   -9.8090    2.5840 C   0  0  0  0  0  2  0  0  0  0  0  0
    2.3980   -9.5180    4.0550 C   0  0  0  0  0  2  0  0  0  0  0  0
    2.2010   -7.5350    5.6590 C   0  0  0  0  0  1  0  0  0  0  0  0
    1.4810   -8.4730    4.7010 C   0  0  0  0  0  2  0  0  0  0  0  0
  1  2  1  0  0  0  0
  2  3  2  0  0  0  0
  4 12  1  0  0  0  0
  4  3  1  0  0  0  0
  5  4  2  0  0  0  0
  6  5  1  0  0  0  0
  6  1  2  0  0  0  0
  7  8  2  0  0  0  0
  7 10  1  0  0  0  0
  7  5  1  0  0  0  0
  9  7  2  0  0  0  0
 10 11  1  0  0  0  0
 11 15  1  6  0  0  0
 11 12  1  0  0  0  0
 12 14  1  0  0  0  0
 13 10  1  0  0  0  0
 15 16  2  0  0  0  0
 16 17  1  0  0  0  0
 16 26  1  0  0  0  0
 17 18  1  0  0  0  0
 18 19  2  0  0  0  0
 20 19  1  0  0  0  0
 21 20  2  0  0  0  0
 22 21  1  0  0  0  0
 22 17  2  0  0  0  0
 23 22  1  0  0  0  0
 24 23  1  0  0  0  0
 24 15  1  0  0  0  0
 25 24  2  0  0  0  0
 26 27  1  0  0  0  0
 28 29  1  0  0  0  0
 28 23  1  0  0  0  0
 30 29  1  0  0  0  0
 30 32  1  0  0  0  0
 31 30  1  0  0  0  0
 33  1  1  0  0  0  0
 33 35  1  0  0  0  0
 34 33  1  0  0  0  0
 35 36  2  0  0  0  0
 35 38  1  0  0  0  0
 37 35  2  0  0  0  0
 38 39  1  0  0  0  0
 39 41  1  0  0  0  0
 41 40  1  0  0  0  0
M  END
>  <minimizedAffinity>
-6.23077011

$$$$
