
 OpenBabel09122222393D

 41 44  0  0  1  0  0  0  0  0999 V2000
    4.7450   -7.1930    1.0420 C   0  0  0  0  0  0  0  0  0  0  0  0
    4.2980   -6.5270    2.1840 C   0  0  0  0  0  3  0  0  0  0  0  0
    5.0470   -5.4830    2.7360 C   0  0  0  0  0  3  0  0  0  0  0  0
    6.2460   -5.0750    2.1440 C   0  0  0  0  0  0  0  0  0  0  0  0
    6.6720   -5.7660    1.0220 C   0  0  0  0  0  0  0  0  0  0  0  0
    5.9490   -6.8250    0.4570 C   0  0  0  0  0  3  0  0  0  0  0  0
    8.1550   -5.2400    0.2780 S   0  0  0  0  0  0  0  0  0  0  0  0
    9.1100   -6.2990    0.5210 O   0  0  0  0  0  0  0  0  0  0  0  0
    7.8020   -4.8680   -1.0740 O   0  0  0  0  0  0  0  0  0  0  0  0
    8.5930   -3.9410    1.0840 N   0  0  0  0  0  0  0  0  0  0  0  0
    7.9980   -3.4880    2.1560 C   0  0  2  0  0  3  0  0  0  0  0  0
    6.9070   -4.0210    2.6790 N   0  0  0  0  0  0  0  0  0  0  0  0
    9.4150   -3.4510    0.7540 H   0  0  0  0  0  0  0  0  0  0  0  0
    6.5240   -3.5690    3.5240 H   0  0  0  0  0  0  0  0  0  0  0  0
    8.6110   -2.2650    2.8300 C   0  0  0  0  0  0  0  0  0  0  0  0
    8.9880   -1.1580    2.1640 C   0  0  0  0  0  0  0  0  0  0  0  0
    9.5420    0.0120    2.8680 C   0  0  0  0  0  0  0  0  0  0  0  0
    9.8130    1.2400    2.2470 C   0  0  0  0  0  3  0  0  0  0  0  0
   10.3560    2.2920    2.9800 C   0  0  0  0  0  3  0  0  0  0  0  0
   10.6050    2.0920    4.3220 C   0  0  0  0  0  3  0  0  0  0  0  0
   10.3320    0.9360    4.9570 N   0  0  0  0  0  0  0  0  0  0  0  0
    9.7950   -0.0790    4.2410 C   0  0  0  0  0  0  0  0  0  0  0  0
    9.4430   -1.2640    4.9320 N   0  0  0  0  0  0  0  0  0  0  0  0
    8.8220   -2.3210    4.3090 C   0  0  0  0  0  0  0  0  0  0  0  0
    8.4540   -3.3440    4.8920 O   0  0  0  0  0  0  0  0  0  0  0  0
    8.8850   -1.1150    0.7780 O   0  0  0  0  0  0  0  0  0  0  0  0
    9.4740   -0.4140    0.4300 H   0  0  0  0  0  0  0  0  0  0  0  0
    9.7130   -1.3280    6.3710 C   0  0  0  0  0  2  0  0  0  0  0  0
    8.6760   -0.6190    7.2570 C   0  0  0  0  0  2  0  0  0  0  0  0
    7.7240   -1.5630    8.0200 C   0  0  0  0  0  3  0  0  0  0  0  0
    6.4320   -1.8380    7.2450 C   0  0  0  0  0  1  0  0  0  0  0  0
    8.4240   -2.8980    8.2960 C   0  0  0  0  0  1  0  0  0  0  0  0
    3.9060   -8.1580    0.4320 N   0  0  0  0  0  0  0  0  0  0  0  0
    3.1320   -7.8530   -0.1590 H   0  0  0  0  0  0  0  0  0  0  0  0
    3.5840   -9.5860    1.2950 S   0  0  0  0  0  0  0  0  0  0  0  0
    3.6320  -10.6970    0.3710 O   0  0  0  0  0  0  0  0  0  0  0  0
    2.4200   -9.3080    2.1050 O   0  0  0  0  0  0  0  0  0  0  0  0
    5.0040   -9.6530    2.3870 C   0  0  0  0  0  2  0  0  0  0  0  0
    5.0750  -10.9450    3.1960 C   0  0  0  0  0  2  0  0  0  0  0  0
    4.0420  -10.0550    5.3610 C   0  0  0  0  0  1  0  0  0  0  0  0
    5.2250  -10.7590    4.7110 C   0  0  0  0  0  2  0  0  0  0  0  0
  1  2  1  0  0  0  0
  2  3  2  0  0  0  0
  4 12  1  0  0  0  0
  4  3  1  0  0  0  0
  5  4  2  0  0  0  0
  6  5  1  0  0  0  0
  6  1  2  0  0  0  0
  7  8  2  0  0  0  0
  7  5  1  0  0  0  0
  7 10  1  0  0  0  0
  9  7  2  0  0  0  0
 10 11  1  0  0  0  0
 11 12  1  0  0  0  0
 11 15  1  6  0  0  0
 12 14  1  0  0  0  0
 13 10  1  0  0  0  0
 15 24  1  0  0  0  0
 16 15  2  0  0  0  0
 16 17  1  0  0  0  0
 17 22  1  0  0  0  0
 18 17  2  0  0  0  0
 18 19  1  0  0  0  0
 19 20  2  0  0  0  0
 20 21  1  0  0  0  0
 22 23  1  0  0  0  0
 22 21  2  0  0  0  0
 23 28  1  0  0  0  0
 24 25  2  0  0  0  0
 24 23  1  0  0  0  0
 26 16  1  0  0  0  0
 27 26  1  0  0  0  0
 28 29  1  0  0  0  0
 29 30  1  0  0  0  0
 30 32  1  0  0  0  0
 31 30  1  0  0  0  0
 33  1  1  0  0  0  0
 33 35  1  0  0  0  0
 34 33  1  0  0  0  0
 35 37  2  0  0  0  0
 35 38  1  0  0  0  0
 36 35  2  0  0  0  0
 38 39  1  0  0  0  0
 39 41  1  0  0  0  0
 41 40  1  0  0  0  0
M  END
>  <minimizedAffinity>
-6.8797307

$$$$
