
 OpenBabel09122222393D

 41 44  0  0  1  0  0  0  0  0999 V2000
    4.4160  -10.2280    2.4970 C   0  0  0  0  0  0  0  0  0  0  0  0
    5.4330   -9.9140    3.3990 C   0  0  0  0  0  3  0  0  0  0  0  0
    6.2830   -8.8290    3.1620 C   0  0  0  0  0  3  0  0  0  0  0  0
    6.1160   -8.0280    2.0280 C   0  0  0  0  0  0  0  0  0  0  0  0
    5.1090   -8.3750    1.1430 C   0  0  0  0  0  0  0  0  0  0  0  0
    4.2540   -9.4660    1.3490 C   0  0  0  0  0  3  0  0  0  0  0  0
    4.8940   -7.3620   -0.2560 S   0  0  0  0  0  0  0  0  0  0  0  0
    5.3040   -8.1660   -1.3860 O   0  0  0  0  0  0  0  0  0  0  0  0
    3.5410   -6.8580   -0.1680 O   0  0  0  0  0  0  0  0  0  0  0  0
    5.9160   -6.1590   -0.0660 N   0  0  0  0  0  0  0  0  0  0  0  0
    6.8020   -6.0730    0.8900 C   0  0  2  0  0  3  0  0  0  0  0  0
    6.9230   -6.9520    1.8700 N   0  0  0  0  0  0  0  0  0  0  0  0
    5.8950   -5.4240   -0.7620 H   0  0  0  0  0  0  0  0  0  0  0  0
    7.6560   -6.7720    2.5740 H   0  0  0  0  0  0  0  0  0  0  0  0
    7.7450   -4.8740    0.8630 C   0  0  0  0  0  0  0  0  0  0  0  0
    8.4980   -4.5430   -0.2020 C   0  0  0  0  0  0  0  0  0  0  0  0
    9.3670   -3.3520   -0.1900 C   0  0  0  0  0  0  0  0  0  0  0  0
   10.0570   -2.8780   -1.3150 C   0  0  0  0  0  3  0  0  0  0  0  0
   10.8740   -1.7550   -1.2150 C   0  0  0  0  0  3  0  0  0  0  0  0
   10.9730   -1.1270    0.0090 C   0  0  0  0  0  3  0  0  0  0  0  0
   10.3030   -1.5380    1.1030 N   0  0  0  0  0  0  0  0  0  0  0  0
    9.5030   -2.6240    0.9970 C   0  0  0  0  0  0  0  0  0  0  0  0
    8.7470   -3.0040    2.1330 N   0  0  0  0  0  0  0  0  0  0  0  0
    7.8480   -4.0440    2.1020 C   0  0  0  0  0  0  0  0  0  0  0  0
    7.1350   -4.3670    3.0560 O   0  0  0  0  0  0  0  0  0  0  0  0
    8.4880   -5.3490   -1.3350 O   0  0  0  0  0  0  0  0  0  0  0  0
    9.2910   -5.1720   -1.8670 H   0  0  0  0  0  0  0  0  0  0  0  0
    8.9050   -2.2180    3.3590 C   0  0  0  0  0  2  0  0  0  0  0  0
    9.9880   -2.7300    4.3230 C   0  0  0  0  0  2  0  0  0  0  0  0
    9.9050   -2.1570    5.7530 C   0  0  0  0  0  3  0  0  0  0  0  0
   10.7520   -0.8920    5.9230 C   0  0  0  0  0  1  0  0  0  0  0  0
    8.4490   -1.8220    6.0970 C   0  0  0  0  0  1  0  0  0  0  0  0
    3.4930  -11.2520    2.8250 N   0  0  0  0  0  0  0  0  0  0  0  0
    3.1860  -11.9060    2.1040 H   0  0  0  0  0  0  0  0  0  0  0  0
    2.2950  -10.8980    3.9800 S   0  0  0  0  0  0  0  0  0  0  0  0
    2.8730  -11.0530    5.2960 O   0  0  0  0  0  0  0  0  0  0  0  0
    1.1170  -11.6250    3.5660 O   0  0  0  0  0  0  0  0  0  0  0  0
    2.0070   -9.1600    3.6510 C   0  0  0  0  0  2  0  0  0  0  0  0
    1.9610   -8.3120    4.9190 C   0  0  0  0  0  2  0  0  0  0  0  0
    3.5170   -6.4420    4.1260 C   0  0  0  0  0  1  0  0  0  0  0  0
    3.2210   -7.4840    5.1960 C   0  0  0  0  0  2  0  0  0  0  0  0
  1 33  1  0  0  0  0
  1  2  1  0  0  0  0
  3  2  2  0  0  0  0
  4  3  1  0  0  0  0
  5  6  1  0  0  0  0
  5  4  2  0  0  0  0
  6  1  2  0  0  0  0
  7  9  2  0  0  0  0
  7 10  1  0  0  0  0
  7  5  1  0  0  0  0
  8  7  2  0  0  0  0
 10 11  1  0  0  0  0
 11 15  1  1  0  0  0
 11 12  1  0  0  0  0
 12  4  1  0  0  0  0
 12 14  1  0  0  0  0
 13 10  1  0  0  0  0
 15 24  1  0  0  0  0
 16 17  1  0  0  0  0
 16 15  2  0  0  0  0
 17 22  1  0  0  0  0
 18 19  1  0  0  0  0
 18 17  2  0  0  0  0
 19 20  2  0  0  0  0
 20 21  1  0  0  0  0
 22 21  2  0  0  0  0
 22 23  1  0  0  0  0
 23 28  1  0  0  0  0
 24 23  1  0  0  0  0
 24 25  2  0  0  0  0
 26 16  1  0  0  0  0
 27 26  1  0  0  0  0
 28 29  1  0  0  0  0
 29 30  1  0  0  0  0
 30 31  1  0  0  0  0
 30 32  1  0  0  0  0
 33 35  1  0  0  0  0
 34 33  1  0  0  0  0
 35 36  2  0  0  0  0
 37 35  2  0  0  0  0
 38 35  1  0  0  0  0
 38 39  1  0  0  0  0
 39 41  1  0  0  0  0
 40 41  1  0  0  0  0
M  END
>  <minimizedAffinity>
-6.89629984

$$$$
