
 OpenBabel09122222393D

 41 44  0  0  1  0  0  0  0  0999 V2000
    1.6900   -6.4980    7.1320 C   0  0  0  0  0  0  0  0  0  0  0  0
    2.6870   -6.5940    8.1040 C   0  0  0  0  0  3  0  0  0  0  0  0
    3.9020   -5.9210    7.9430 C   0  0  0  0  0  3  0  0  0  0  0  0
    4.1330   -5.1260    6.8170 C   0  0  0  0  0  0  0  0  0  0  0  0
    3.1320   -5.0650    5.8620 C   0  0  0  0  0  0  0  0  0  0  0  0
    1.9110   -5.7410    5.9900 C   0  0  0  0  0  3  0  0  0  0  0  0
    3.4180   -4.0580    4.4710 S   0  0  0  0  0  0  0  0  0  0  0  0
    3.5630   -4.9660    3.3550 O   0  0  0  0  0  0  0  0  0  0  0  0
    2.3610   -3.0710    4.4800 O   0  0  0  0  0  0  0  0  0  0  0  0
    4.8100   -3.3390    4.7500 N   0  0  0  0  0  0  0  0  0  0  0  0
    5.5940   -3.5950    5.7640 C   0  0  2  0  0  3  0  0  0  0  0  0
    5.3010   -4.4450    6.7330 N   0  0  0  0  0  0  0  0  0  0  0  0
    5.1200   -2.6580    4.0690 H   0  0  0  0  0  0  0  0  0  0  0  0
    5.9980   -4.5560    7.4860 H   0  0  0  0  0  0  0  0  0  0  0  0
    6.9240   -2.8510    5.8210 C   0  0  0  0  0  0  0  0  0  0  0  0
    7.3080   -2.0900    6.8620 C   0  0  0  0  0  0  0  0  0  0  0  0
    8.6210   -1.4210    6.8840 C   0  0  0  0  0  0  0  0  0  0  0  0
    9.1320   -0.7400    7.9990 C   0  0  0  0  0  3  0  0  0  0  0  0
   10.3750   -0.1170    7.9310 C   0  0  0  0  0  3  0  0  0  0  0  0
   11.0820   -0.1970    6.7500 C   0  0  0  0  0  3  0  0  0  0  0  0
   10.6350   -0.8660    5.6690 N   0  0  0  0  0  0  0  0  0  0  0  0
    9.4310   -1.4790    5.7450 C   0  0  0  0  0  0  0  0  0  0  0  0
    9.0030   -2.2390    4.6290 N   0  0  0  0  0  0  0  0  0  0  0  0
    7.8330   -2.9610    4.6380 C   0  0  0  0  0  0  0  0  0  0  0  0
    7.4570   -3.6760    3.7050 O   0  0  0  0  0  0  0  0  0  0  0  0
    6.4450   -1.8990    7.9360 O   0  0  0  0  0  0  0  0  0  0  0  0
    6.7170   -1.1000    8.4330 H   0  0  0  0  0  0  0  0  0  0  0  0
    9.8750   -2.2870    3.4530 C   0  0  0  0  0  2  0  0  0  0  0  0
    9.2890   -1.6470    2.1840 C   0  0  0  0  0  2  0  0  0  0  0  0
   10.0460   -1.9820    0.8820 C   0  0  0  0  0  3  0  0  0  0  0  0
    9.5030   -3.2410    0.2000 C   0  0  0  0  0  1  0  0  0  0  0  0
    9.9400   -0.8080   -0.0990 C   0  0  0  0  0  1  0  0  0  0  0  0
    0.4250   -7.0850    7.3800 N   0  0  0  0  0  0  0  0  0  0  0  0
    0.1040   -7.2080    8.3420 H   0  0  0  0  0  0  0  0  0  0  0  0
   -0.1020   -8.3090    6.3240 S   0  0  0  0  0  0  0  0  0  0  0  0
   -0.4310   -7.7030    5.0530 O   0  0  0  0  0  0  0  0  0  0  0  0
   -1.0560   -9.0960    7.0710 O   0  0  0  0  0  0  0  0  0  0  0  0
    1.3940   -9.2820    6.1560 C   0  0  0  0  0  2  0  0  0  0  0  0
    2.0000   -9.2090    4.7570 C   0  0  0  0  0  2  0  0  0  0  0  0
    4.0960   -8.4450    3.5050 C   0  0  0  0  0  1  0  0  0  0  0  0
    3.5320   -9.1860    4.7090 C   0  0  0  0  0  2  0  0  0  0  0  0
  1 33  1  0  0  0  0
  1  2  1  0  0  0  0
  3  2  2  0  0  0  0
  4  3  1  0  0  0  0
  5  6  1  0  0  0  0
  5  4  2  0  0  0  0
  6  1  2  0  0  0  0
  7  9  2  0  0  0  0
  7 10  1  0  0  0  0
  7  5  1  0  0  0  0
  8  7  2  0  0  0  0
 10 11  1  0  0  0  0
 11 15  1  1  0  0  0
 11 12  1  0  0  0  0
 12  4  1  0  0  0  0
 12 14  1  0  0  0  0
 13 10  1  0  0  0  0
 15 16  2  0  0  0  0
 16 17  1  0  0  0  0
 16 26  1  0  0  0  0
 17 18  1  0  0  0  0
 19 18  2  0  0  0  0
 20 19  1  0  0  0  0
 21 22  1  0  0  0  0
 21 20  2  0  0  0  0
 22 17  2  0  0  0  0
 23 24  1  0  0  0  0
 23 22  1  0  0  0  0
 24 15  1  0  0  0  0
 25 24  2  0  0  0  0
 26 27  1  0  0  0  0
 28 23  1  0  0  0  0
 29 28  1  0  0  0  0
 30 29  1  0  0  0  0
 31 30  1  0  0  0  0
 32 30  1  0  0  0  0
 33 34  1  0  0  0  0
 35 37  2  0  0  0  0
 35 33  1  0  0  0  0
 36 35  2  0  0  0  0
 38 35  1  0  0  0  0
 39 38  1  0  0  0  0
 40 41  1  0  0  0  0
 41 39  1  0  0  0  0
M  END
>  <minimizedAffinity>
-6.2563982

$$$$
