
 OpenBabel09122222393D

 28 30  0  0  0  0  0  0  0  0999 V2000
    4.7970   -2.8190    6.7320 C   0  0  0  0  0  0  0  0  0  0  0  0
    5.9060   -2.0170    6.5580 N   0  0  0  0  0  0  0  0  0  0  0  0
    7.0380   -2.4810    6.9610 C   0  0  0  0  0  0  0  0  0  0  0  0
    7.1950   -3.6960    7.5440 N   0  0  0  0  0  0  0  0  0  0  0  0
    6.1270   -4.4940    7.8340 C   0  0  0  0  0  0  0  0  0  0  0  0
    6.2690   -5.5470    8.4450 O   0  0  0  0  0  0  0  0  0  0  0  0
    4.8160   -4.0080    7.3600 C   0  0  0  0  0  0  0  0  0  0  0  0
    8.1050   -4.0260    7.8180 H   0  0  0  0  0  0  0  0  0  0  0  0
    3.9190   -3.6750    3.9960 C   0  0  0  0  0  1  0  0  0  0  0  0
    3.1270   -2.7070    4.8320 C   0  0  0  0  0  0  0  0  0  0  0  0
    1.9400   -2.1620    4.3130 C   0  0  0  0  0  3  0  0  0  0  0  0
    1.1740   -1.2690    5.0630 C   0  0  0  0  0  3  0  0  0  0  0  0
    1.5780   -0.9070    6.3430 C   0  0  0  0  0  3  0  0  0  0  0  0
    2.7570   -1.4310    6.8710 C   0  0  0  0  0  3  0  0  0  0  0  0
    3.5450   -2.3230    6.1210 C   0  0  0  0  0  0  0  0  0  0  0  0
    3.6040   -4.9060    7.5430 C   0  0  0  0  0  2  0  0  0  0  0  0
    2.5970   -5.6500    7.6940 N   0  0  0  0  0  1  0  0  0  0  0  0
    8.4850   -1.5560    6.7350 S   0  0  0  0  0  0  0  0  0  0  0  0
    9.4320   -2.5230    5.5360 C   0  0  0  0  0  2  0  0  0  0  0  0
    9.3250   -2.0980    4.0900 C   0  0  0  0  0  0  0  0  0  0  0  0
    9.0420   -3.0600    3.1030 C   0  0  0  0  0  3  0  0  0  0  0  0
    8.9300   -2.6980    1.7590 C   0  0  0  0  0  3  0  0  0  0  0  0
    9.0890   -1.3680    1.3770 C   0  0  0  0  0  3  0  0  0  0  0  0
    9.3560   -0.3990    2.3530 C   0  0  0  0  0  0  0  0  0  0  0  0
    9.4670   -0.7560    3.7050 C   0  0  0  0  0  3  0  0  0  0  0  0
    9.5220    1.0050    1.9520 N   0  0  0  0  0  0  0  0  0  0  0  0
    9.8340    1.2340    0.7750 O   0  0  0  0  0  0  0  0  0  0  0  0
    9.3470    1.8750    2.8150 O   0  0  0  0  0  0  0  0  0  0  0  0
  1  7  2  0  0  0  0
  2  1  1  0  0  0  0
  2  3  2  0  0  0  0
  3  4  1  0  0  0  0
  4  8  1  0  0  0  0
  4  5  1  0  0  0  0
  5  6  2  0  0  0  0
  7 16  1  0  0  0  0
  7  5  1  0  0  0  0
  9 10  1  0  0  0  0
 10 15  1  0  0  0  0
 11 10  2  0  0  0  0
 11 12  1  0  0  0  0
 12 13  2  0  0  0  0
 13 14  1  0  0  0  0
 15  1  1  0  0  0  0
 15 14  2  0  0  0  0
 16 17  1  0  0  0  0
 18  3  1  0  0  0  0
 19 18  1  0  0  0  0
 20 19  1  0  0  0  0
 21 20  2  0  0  0  0
 22 21  1  0  0  0  0
 23 22  2  0  0  0  0
 23 24  1  0  0  0  0
 24 25  2  0  0  0  0
 25 20  1  0  0  0  0
 26 24  1  0  0  0  0
 26 28  2  0  0  0  0
 27 26  2  0  0  0  0
M  END
>  <minimizedAffinity>
-6.27577877

$$$$
