
 OpenBabel09122222393D

 28 30  0  0  0  0  0  0  0  0999 V2000
    9.4100   -0.7150    1.9230 C   0  0  0  0  0  0  0  0  0  0  0  0
    9.4490    0.3040    0.9940 N   0  0  0  0  0  0  0  0  0  0  0  0
    9.7930    1.4730    1.4150 C   0  0  0  0  0  0  0  0  0  0  0  0
   10.1080    1.7500    2.7050 N   0  0  0  0  0  0  0  0  0  0  0  0
    9.9930    0.8120    3.6880 C   0  0  0  0  0  0  0  0  0  0  0  0
   10.1890    1.0970    4.8640 O   0  0  0  0  0  0  0  0  0  0  0  0
    9.6300   -0.5460    3.2380 C   0  0  0  0  0  0  0  0  0  0  0  0
   10.3980    2.6740    2.9800 H   0  0  0  0  0  0  0  0  0  0  0  0
   10.8310   -1.7320   -0.5140 C   0  0  0  0  0  1  0  0  0  0  0  0
    9.8130   -2.5540    0.2290 C   0  0  0  0  0  0  0  0  0  0  0  0
    9.4950   -3.8400   -0.2390 C   0  0  0  0  0  3  0  0  0  0  0  0
    8.5630   -4.6350    0.4280 C   0  0  0  0  0  3  0  0  0  0  0  0
    7.9360   -4.1620    1.5760 C   0  0  0  0  0  3  0  0  0  0  0  0
    8.2340   -2.8850    2.0500 C   0  0  0  0  0  3  0  0  0  0  0  0
    9.1620   -2.0690    1.3800 C   0  0  0  0  0  0  0  0  0  0  0  0
    9.6040   -1.6650    4.2670 C   0  0  0  0  0  2  0  0  0  0  0  0
    9.5830   -2.5940    5.1210 N   0  0  0  0  0  1  0  0  0  0  0  0
    9.9130    2.7940    0.3030 S   0  0  0  0  0  0  0  0  0  0  0  0
   10.5540    4.1510    1.3130 C   0  0  0  0  0  2  0  0  0  0  0  0
   10.0470    5.5350    0.9860 C   0  0  0  0  0  0  0  0  0  0  0  0
    9.6290    5.8300   -0.3240 C   0  0  0  0  0  3  0  0  0  0  0  0
    9.1480    7.0990   -0.6560 C   0  0  0  0  0  3  0  0  0  0  0  0
    9.0670    8.0930    0.3160 C   0  0  0  0  0  3  0  0  0  0  0  0
    9.4660    7.8070    1.6280 C   0  0  0  0  0  0  0  0  0  0  0  0
    9.9470    6.5340    1.9680 C   0  0  0  0  0  3  0  0  0  0  0  0
    9.3800    8.8530    2.6550 N   0  0  0  0  0  0  0  0  0  0  0  0
   10.4350    9.2170    3.1950 O   0  0  0  0  0  0  0  0  0  0  0  0
    8.2610    9.3060    2.9250 O   0  0  0  0  0  0  0  0  0  0  0  0
  1  7  2  0  0  0  0
  2  3  2  0  0  0  0
  2  1  1  0  0  0  0
  3  4  1  0  0  0  0
  4  8  1  0  0  0  0
  4  5  1  0  0  0  0
  5  6  2  0  0  0  0
  7  5  1  0  0  0  0
  7 16  1  0  0  0  0
  9 10  1  0  0  0  0
 10 15  1  0  0  0  0
 11 10  2  0  0  0  0
 11 12  1  0  0  0  0
 12 13  2  0  0  0  0
 13 14  1  0  0  0  0
 15  1  1  0  0  0  0
 15 14  2  0  0  0  0
 16 17  1  0  0  0  0
 18 19  1  0  0  0  0
 18  3  1  0  0  0  0
 20 19  1  0  0  0  0
 20 25  1  0  0  0  0
 21 20  2  0  0  0  0
 22 21  1  0  0  0  0
 22 23  2  0  0  0  0
 23 24  1  0  0  0  0
 24 25  2  0  0  0  0
 24 26  1  0  0  0  0
 26 28  2  0  0  0  0
 26 27  2  0  0  0  0
M  END
>  <minimizedAffinity>
-5.81221056

$$$$
