
 OpenBabel09122222393D

 28 30  0  0  0  0  0  0  0  0999 V2000
   10.1220    3.2600    5.3010 C   0  0  0  0  0  0  0  0  0  0  0  0
    9.9920    2.7900    4.0110 N   0  0  0  0  0  0  0  0  0  0  0  0
   10.2520    3.6110    3.0540 C   0  0  0  0  0  0  0  0  0  0  0  0
   10.6370    4.8990    3.2450 N   0  0  0  0  0  0  0  0  0  0  0  0
   10.6890    5.4540    4.4900 C   0  0  0  0  0  0  0  0  0  0  0  0
   10.9450    6.6420    4.6450 O   0  0  0  0  0  0  0  0  0  0  0  0
   10.4250    4.5330    5.6130 C   0  0  0  0  0  0  0  0  0  0  0  0
   10.8560    5.4950    2.4650 H   0  0  0  0  0  0  0  0  0  0  0  0
    7.8020    3.3070    7.2000 C   0  0  0  0  0  1  0  0  0  0  0  0
    8.8880    2.2690    7.2780 C   0  0  0  0  0  0  0  0  0  0  0  0
    8.8330    1.2930    8.2870 C   0  0  0  0  0  3  0  0  0  0  0  0
    9.8170    0.3080    8.3850 C   0  0  0  0  0  3  0  0  0  0  0  0
   10.8700    0.2810    7.4770 C   0  0  0  0  0  3  0  0  0  0  0  0
   10.9440    1.2470    6.4750 C   0  0  0  0  0  3  0  0  0  0  0  0
    9.9660    2.2510    6.3710 C   0  0  0  0  0  0  0  0  0  0  0  0
   10.5860    5.0570    7.0310 C   0  0  0  0  0  2  0  0  0  0  0  0
   10.7190    5.4930    8.2070 N   0  0  0  0  0  1  0  0  0  0  0  0
   10.1600    3.0840    1.4070 S   0  0  0  0  0  0  0  0  0  0  0  0
    9.4810    1.4120    1.5280 C   0  0  0  0  0  2  0  0  0  0  0  0
    9.9000    0.4330    0.4570 C   0  0  0  0  0  0  0  0  0  0  0  0
   10.5380    0.9060   -0.7040 C   0  0  0  0  0  3  0  0  0  0  0  0
   10.9440    0.0250   -1.7100 C   0  0  0  0  0  3  0  0  0  0  0  0
   10.7300   -1.3440   -1.5700 C   0  0  0  0  0  3  0  0  0  0  0  0
   10.1090   -1.8280   -0.4110 C   0  0  0  0  0  0  0  0  0  0  0  0
    9.7020   -0.9490    0.6040 C   0  0  0  0  0  3  0  0  0  0  0  0
    9.8840   -3.2720   -0.2600 N   0  0  0  0  0  0  0  0  0  0  0  0
   10.4220   -4.0270   -1.0820 O   0  0  0  0  0  0  0  0  0  0  0  0
    9.1640   -3.6490    0.6740 O   0  0  0  0  0  0  0  0  0  0  0  0
  1  7  2  0  0  0  0
  1 15  1  0  0  0  0
  2  1  1  0  0  0  0
  3  4  1  0  0  0  0
  3  2  2  0  0  0  0
  4  5  1  0  0  0  0
  5  6  2  0  0  0  0
  5  7  1  0  0  0  0
  7 16  1  0  0  0  0
  8  4  1  0  0  0  0
  9 10  1  0  0  0  0
 10 11  1  0  0  0  0
 11 12  2  0  0  0  0
 13 12  1  0  0  0  0
 14 13  2  0  0  0  0
 15 14  1  0  0  0  0
 15 10  2  0  0  0  0
 16 17  1  0  0  0  0
 18 19  1  0  0  0  0
 18  3  1  0  0  0  0
 20 25  1  0  0  0  0
 20 19  1  0  0  0  0
 21 20  2  0  0  0  0
 22 23  2  0  0  0  0
 22 21  1  0  0  0  0
 23 24  1  0  0  0  0
 24 26  1  0  0  0  0
 24 25  2  0  0  0  0
 26 28  2  0  0  0  0
 27 26  2  0  0  0  0
M  END
>  <minimizedAffinity>
-5.51904631

$$$$
