
 OpenBabel09122222393D

 28 30  0  0  0  0  0  0  0  0999 V2000
    5.7080   -2.8700    6.0800 C   0  0  0  0  0  0  0  0  0  0  0  0
    6.8590   -3.1840    5.3860 N   0  0  0  0  0  0  0  0  0  0  0  0
    7.9360   -2.5610    5.7170 C   0  0  0  0  0  0  0  0  0  0  0  0
    7.9980   -1.6220    6.6950 N   0  0  0  0  0  0  0  0  0  0  0  0
    6.8800   -1.1950    7.3500 C   0  0  0  0  0  0  0  0  0  0  0  0
    6.9310   -0.2810    8.1640 O   0  0  0  0  0  0  0  0  0  0  0  0
    5.6310   -1.9080    7.0160 C   0  0  0  0  0  0  0  0  0  0  0  0
    8.8700   -1.1820    6.9360 H   0  0  0  0  0  0  0  0  0  0  0  0
    4.9480   -5.2080    7.7960 C   0  0  0  0  0  1  0  0  0  0  0  0
    4.1670   -4.8190    6.5710 C   0  0  0  0  0  0  0  0  0  0  0  0
    3.0500   -5.5850    6.1960 C   0  0  0  0  0  3  0  0  0  0  0  0
    2.2960   -5.2490    5.0710 C   0  0  0  0  0  3  0  0  0  0  0  0
    2.6430   -4.1420    4.3030 C   0  0  0  0  0  3  0  0  0  0  0  0
    3.7530   -3.3760    4.6560 C   0  0  0  0  0  3  0  0  0  0  0  0
    4.5280   -3.7100    5.7800 C   0  0  0  0  0  0  0  0  0  0  0  0
    4.3730   -1.5650    7.7970 C   0  0  0  0  0  2  0  0  0  0  0  0
    3.3290   -1.2800    8.4450 N   0  0  0  0  0  1  0  0  0  0  0  0
    9.4320   -2.9330    4.9270 S   0  0  0  0  0  0  0  0  0  0  0  0
    8.9400   -3.3080    3.2270 C   0  0  0  0  0  2  0  0  0  0  0  0
    9.2670   -2.2660    2.1840 C   0  0  0  0  0  0  0  0  0  0  0  0
    9.6120   -2.6710    0.8820 C   0  0  0  0  0  3  0  0  0  0  0  0
    9.9130   -1.7320   -0.1070 C   0  0  0  0  0  3  0  0  0  0  0  0
    9.8660   -0.3710    0.1840 C   0  0  0  0  0  3  0  0  0  0  0  0
    9.5100    0.0460    1.4730 C   0  0  0  0  0  0  0  0  0  0  0  0
    9.2030   -0.8930    2.4690 C   0  0  0  0  0  3  0  0  0  0  0  0
    9.4580    1.4810    1.7810 N   0  0  0  0  0  0  0  0  0  0  0  0
    9.7960    2.2730    0.8900 O   0  0  0  0  0  0  0  0  0  0  0  0
    9.0870    1.8150    2.9130 O   0  0  0  0  0  0  0  0  0  0  0  0
  1  7  2  0  0  0  0
  2  3  2  0  0  0  0
  2  1  1  0  0  0  0
  3  4  1  0  0  0  0
  4  8  1  0  0  0  0
  4  5  1  0  0  0  0
  5  6  2  0  0  0  0
  7  5  1  0  0  0  0
  7 16  1  0  0  0  0
 10  9  1  0  0  0  0
 11 10  1  0  0  0  0
 12 11  2  0  0  0  0
 13 14  2  0  0  0  0
 13 12  1  0  0  0  0
 14 15  1  0  0  0  0
 15  1  1  0  0  0  0
 15 10  2  0  0  0  0
 16 17  1  0  0  0  0
 18  3  1  0  0  0  0
 19 18  1  0  0  0  0
 20 25  1  0  0  0  0
 20 19  1  0  0  0  0
 21 20  2  0  0  0  0
 22 23  2  0  0  0  0
 22 21  1  0  0  0  0
 23 24  1  0  0  0  0
 24 26  1  0  0  0  0
 24 25  2  0  0  0  0
 26 28  2  0  0  0  0
 27 26  2  0  0  0  0
M  END
>  <minimizedAffinity>
-6.01903248

$$$$
