
 OpenBabel09122222393D

 28 30  0  0  0  0  0  0  0  0999 V2000
    5.8960   -2.5560    6.4390 C   0  0  0  0  0  0  0  0  0  0  0  0
    7.1440   -2.7630    5.8890 N   0  0  0  0  0  0  0  0  0  0  0  0
    8.0970   -1.9910    6.2820 C   0  0  0  0  0  0  0  0  0  0  0  0
    7.9400   -0.9960    7.1910 N   0  0  0  0  0  0  0  0  0  0  0  0
    6.7140   -0.6760    7.6980 C   0  0  0  0  0  0  0  0  0  0  0  0
    6.5670    0.2840    8.4450 O   0  0  0  0  0  0  0  0  0  0  0  0
    5.6030   -1.5590    7.2910 C   0  0  0  0  0  0  0  0  0  0  0  0
    8.7220   -0.4360    7.4880 H   0  0  0  0  0  0  0  0  0  0  0  0
    5.2910   -4.9090    8.1960 C   0  0  0  0  0  1  0  0  0  0  0  0
    4.5790   -4.6720    6.8920 C   0  0  0  0  0  0  0  0  0  0  0  0
    3.6060   -5.5900    6.4630 C   0  0  0  0  0  3  0  0  0  0  0  0
    2.9190   -5.3980    5.2640 C   0  0  0  0  0  3  0  0  0  0  0  0
    3.1880   -4.2840    4.4760 C   0  0  0  0  0  3  0  0  0  0  0  0
    4.1550   -3.3660    4.8830 C   0  0  0  0  0  3  0  0  0  0  0  0
    4.8640   -3.5540    6.0820 C   0  0  0  0  0  0  0  0  0  0  0  0
    4.2350   -1.3320    7.9150 C   0  0  0  0  0  2  0  0  0  0  0  0
    3.1000   -1.1440    8.4320 N   0  0  0  0  0  1  0  0  0  0  0  0
    9.7040   -2.2170    5.6750 S   0  0  0  0  0  0  0  0  0  0  0  0
    9.4590   -3.1450    4.1420 C   0  0  0  0  0  2  0  0  0  0  0  0
    9.4920   -2.3500    2.8590 C   0  0  0  0  0  0  0  0  0  0  0  0
    9.1760   -0.9800    2.8820 C   0  0  0  0  0  3  0  0  0  0  0  0
    9.2050   -0.2160    1.7130 C   0  0  0  0  0  3  0  0  0  0  0  0
    9.5590   -0.8040    0.5010 C   0  0  0  0  0  3  0  0  0  0  0  0
    9.8910   -2.1650    0.4680 C   0  0  0  0  0  0  0  0  0  0  0  0
    9.8670   -2.9370    1.6390 C   0  0  0  0  0  3  0  0  0  0  0  0
   10.2670   -2.7870   -0.8080 N   0  0  0  0  0  0  0  0  0  0  0  0
    9.8870   -3.9480   -1.0160 O   0  0  0  0  0  0  0  0  0  0  0  0
   10.9460   -2.1190   -1.5990 O   0  0  0  0  0  0  0  0  0  0  0  0
  1  7  2  0  0  0  0
  2  3  2  0  0  0  0
  2  1  1  0  0  0  0
  3  4  1  0  0  0  0
  4  8  1  0  0  0  0
  4  5  1  0  0  0  0
  5  6  2  0  0  0  0
  7  5  1  0  0  0  0
  7 16  1  0  0  0  0
 10  9  1  0  0  0  0
 11 10  1  0  0  0  0
 12 11  2  0  0  0  0
 13 14  2  0  0  0  0
 13 12  1  0  0  0  0
 14 15  1  0  0  0  0
 15  1  1  0  0  0  0
 15 10  2  0  0  0  0
 16 17  1  0  0  0  0
 18  3  1  0  0  0  0
 19 18  1  0  0  0  0
 20 21  1  0  0  0  0
 20 19  1  0  0  0  0
 22 21  2  0  0  0  0
 23 22  1  0  0  0  0
 24 23  2  0  0  0  0
 24 25  1  0  0  0  0
 25 20  2  0  0  0  0
 26 24  1  0  0  0  0
 27 26  2  0  0  0  0
 28 26  2  0  0  0  0
M  END
>  <minimizedAffinity>
-6.52324772

$$$$
