
 OpenBabel09122222393D

 28 30  0  0  0  0  0  0  0  0999 V2000
    8.5940   -2.7930    3.1110 C   0  0  0  0  0  0  0  0  0  0  0  0
    8.3400   -3.2030    4.4030 N   0  0  0  0  0  0  0  0  0  0  0  0
    8.5650   -2.3550    5.3470 C   0  0  0  0  0  0  0  0  0  0  0  0
    9.0360   -1.0990    5.1400 N   0  0  0  0  0  0  0  0  0  0  0  0
    9.3990   -0.6660    3.8990 C   0  0  0  0  0  0  0  0  0  0  0  0
    9.9110    0.4350    3.7350 O   0  0  0  0  0  0  0  0  0  0  0  0
    9.1280   -1.6020    2.7890 C   0  0  0  0  0  0  0  0  0  0  0  0
    9.1700   -0.4630    5.9080 H   0  0  0  0  0  0  0  0  0  0  0  0
    5.9400   -4.1870    3.1660 C   0  0  0  0  0  1  0  0  0  0  0  0
    6.9430   -4.4040    2.0660 C   0  0  0  0  0  0  0  0  0  0  0  0
    6.6430   -5.3060    1.0320 C   0  0  0  0  0  3  0  0  0  0  0  0
    7.5450   -5.5270   -0.0100 C   0  0  0  0  0  3  0  0  0  0  0  0
    8.7580   -4.8480   -0.0380 C   0  0  0  0  0  3  0  0  0  0  0  0
    9.0750   -3.9550    0.9840 C   0  0  0  0  0  3  0  0  0  0  0  0
    8.1810   -3.7320    2.0460 C   0  0  0  0  0  0  0  0  0  0  0  0
    9.3970   -1.1330    1.3680 C   0  0  0  0  0  2  0  0  0  0  0  0
    9.6200   -0.7440    0.1890 N   0  0  0  0  0  1  0  0  0  0  0  0
    8.2270   -2.7780    6.9920 S   0  0  0  0  0  0  0  0  0  0  0  0
    6.6280   -3.6190    6.9010 C   0  0  0  0  0  2  0  0  0  0  0  0
    5.4000   -2.7420    6.9420 C   0  0  0  0  0  0  0  0  0  0  0  0
    5.3380   -1.6750    7.8570 C   0  0  0  0  0  3  0  0  0  0  0  0
    4.2190   -0.8420    7.9150 C   0  0  0  0  0  3  0  0  0  0  0  0
    3.1450   -1.0520    7.0540 C   0  0  0  0  0  3  0  0  0  0  0  0
    3.2010   -2.1020    6.1270 C   0  0  0  0  0  0  0  0  0  0  0  0
    4.3230   -2.9410    6.0630 C   0  0  0  0  0  3  0  0  0  0  0  0
    2.0700   -2.3250    5.2170 N   0  0  0  0  0  0  0  0  0  0  0  0
    1.2430   -1.4100    5.0920 O   0  0  0  0  0  0  0  0  0  0  0  0
    2.0050   -3.4150    4.6340 O   0  0  0  0  0  0  0  0  0  0  0  0
  1  2  1  0  0  0  0
  2  3  2  0  0  0  0
  3 18  1  0  0  0  0
  4  3  1  0  0  0  0
  4  8  1  0  0  0  0
  5  4  1  0  0  0  0
  6  5  2  0  0  0  0
  7  1  2  0  0  0  0
  7  5  1  0  0  0  0
 10  9  1  0  0  0  0
 11 10  2  0  0  0  0
 12 11  1  0  0  0  0
 13 12  2  0  0  0  0
 13 14  1  0  0  0  0
 14 15  2  0  0  0  0
 15 10  1  0  0  0  0
 15  1  1  0  0  0  0
 16  7  1  0  0  0  0
 17 16  1  0  0  0  0
 19 20  1  0  0  0  0
 19 18  1  0  0  0  0
 20 21  1  0  0  0  0
 21 22  2  0  0  0  0
 23 22  1  0  0  0  0
 24 23  2  0  0  0  0
 25 24  1  0  0  0  0
 25 20  2  0  0  0  0
 26 24  1  0  0  0  0
 27 26  2  0  0  0  0
 28 26  2  0  0  0  0
M  END
>  <minimizedAffinity>
-5.87202311

$$$$
