
 OpenBabel09122222393D

 28 30  0  0  0  0  0  0  0  0999 V2000
    5.7030   -5.5220    2.7230 C   0  0  0  0  0  0  0  0  0  0  0  0
    5.9760   -4.3390    3.3010 C   0  0  0  0  0  0  0  0  0  0  0  0
    7.0760   -3.5660    2.9890 N   0  0  0  0  0  0  0  0  0  0  0  0
    7.8500   -3.9820    2.0460 C   0  0  0  0  0  0  0  0  0  0  0  0
    7.6440   -5.1310    1.3540 N   0  0  0  0  0  0  0  0  0  0  0  0
    6.6290   -5.9850    1.6700 C   0  0  0  0  0  0  0  0  0  0  0  0
    6.5050   -7.0610    1.0960 O   0  0  0  0  0  0  0  0  0  0  0  0
    8.2550   -5.4040    0.6040 H   0  0  0  0  0  0  0  0  0  0  0  0
    5.0310   -3.7380    4.2670 C   0  0  0  0  0  0  0  0  0  0  0  0
    3.7650   -3.2850    3.8740 C   0  0  0  0  0  3  0  0  0  0  0  0
    2.9020   -2.7040    4.8090 C   0  0  0  0  0  3  0  0  0  0  0  0
    3.3020   -2.5810    6.1390 C   0  0  0  0  0  0  0  0  0  0  0  0
    2.1370   -1.7920    7.4010 Br  0  0  0  0  0  0  0  0  0  0  0  0
    4.5520   -3.0380    6.5470 C   0  0  0  0  0  3  0  0  0  0  0  0
    5.4130   -3.6200    5.6120 C   0  0  0  0  0  3  0  0  0  0  0  0
    3.4310   -7.0440    3.2310 N   0  0  0  0  0  1  0  0  0  0  0  0
    4.4610   -6.3530    3.0000 C   0  0  0  0  0  2  0  0  0  0  0  0
    9.2090   -3.0220    1.5620 S   0  0  0  0  0  0  0  0  0  0  0  0
    9.5690   -3.5760   -0.1200 C   0  0  0  0  0  2  0  0  0  0  0  0
   10.6340   -2.8070   -0.8650 C   0  0  0  0  0  0  0  0  0  0  0  0
   11.7160   -3.4960   -1.4410 C   0  0  0  0  0  3  0  0  0  0  0  0
   12.7040   -2.8150   -2.1550 C   0  0  0  0  0  3  0  0  0  0  0  0
   12.6240   -1.4330   -2.3150 C   0  0  0  0  0  3  0  0  0  0  0  0
   11.5450   -0.7380   -1.7580 C   0  0  0  0  0  0  0  0  0  0  0  0
   10.5480   -1.4160   -1.0410 C   0  0  0  0  0  3  0  0  0  0  0  0
   11.4530    0.7180   -1.9340 N   0  0  0  0  0  0  0  0  0  0  0  0
   10.7370    1.3490   -1.1440 O   0  0  0  0  0  0  0  0  0  0  0  0
   12.0970    1.2280   -2.8610 O   0  0  0  0  0  0  0  0  0  0  0  0
  1 17  1  0  0  0  0
  1  2  2  0  0  0  0
  2  9  1  0  0  0  0
  3  2  1  0  0  0  0
  4  3  2  0  0  0  0
  5  6  1  0  0  0  0
  5  4  1  0  0  0  0
  6  1  1  0  0  0  0
  7  6  2  0  0  0  0
  8  5  1  0  0  0  0
  9 15  1  0  0  0  0
 10  9  2  0  0  0  0
 10 11  1  0  0  0  0
 11 12  2  0  0  0  0
 12 14  1  0  0  0  0
 12 13  1  0  0  0  0
 15 14  2  0  0  0  0
 17 16  1  0  0  0  0
 18  4  1  0  0  0  0
 19 18  1  0  0  0  0
 20 19  1  0  0  0  0
 21 20  2  0  0  0  0
 22 21  1  0  0  0  0
 23 22  2  0  0  0  0
 23 24  1  0  0  0  0
 24 25  2  0  0  0  0
 25 20  1  0  0  0  0
 26 24  1  0  0  0  0
 26 27  2  0  0  0  0
 28 26  2  0  0  0  0
M  END
>  <minimizedAffinity>
-7.25488043

$$$$
