
 OpenBabel09122220003D

 28 30  0  0  0  0  0  0  0  0999 V2000
    7.1050   -5.4740    0.3190 C   0  0  0  0  0  0  0  0  0  0  0  0
    6.9390   -5.1560    1.6150 C   0  0  0  0  0  0  0  0  0  0  0  0
    7.7360   -4.2580    2.2950 N   0  0  0  0  0  0  0  0  0  0  0  0
    8.6550   -3.6500    1.6270 C   0  0  0  0  0  0  0  0  0  0  0  0
    8.8790   -3.8470    0.3030 N   0  0  0  0  0  0  0  0  0  0  0  0
    8.1890   -4.7830   -0.4090 C   0  0  0  0  0  0  0  0  0  0  0  0
    8.4600   -5.0130   -1.5820 O   0  0  0  0  0  0  0  0  0  0  0  0
    9.5870   -3.3280   -0.1890 H   0  0  0  0  0  0  0  0  0  0  0  0
    5.7970   -5.6990    2.3820 C   0  0  0  0  0  0  0  0  0  0  0  0
    4.8300   -4.8610    2.9530 C   0  0  0  0  0  3  0  0  0  0  0  0
    3.7720   -5.4060    3.6890 C   0  0  0  0  0  3  0  0  0  0  0  0
    3.6770   -6.7870    3.8480 C   0  0  0  0  0  0  0  0  0  0  0  0
    2.2500   -7.5210    4.8470 Br  0  0  0  0  0  0  0  0  0  0  0  0
    4.6230   -7.6320    3.2750 C   0  0  0  0  0  3  0  0  0  0  0  0
    5.6790   -7.0880    2.5390 C   0  0  0  0  0  3  0  0  0  0  0  0
    5.4420   -7.1770   -1.1190 N   0  0  0  0  0  1  0  0  0  0  0  0
    6.1960   -6.4040   -0.4670 C   0  0  0  0  0  2  0  0  0  0  0  0
    9.6440   -2.4600    2.4080 S   0  0  0  0  0  0  0  0  0  0  0  0
    8.8210   -0.8920    2.0500 C   0  0  0  0  0  2  0  0  0  0  0  0
    9.5020    0.0070    1.0460 C   0  0  0  0  0  0  0  0  0  0  0  0
    9.7060    1.3640    1.3520 C   0  0  0  0  0  3  0  0  0  0  0  0
   10.3530    2.2140    0.4520 C   0  0  0  0  0  3  0  0  0  0  0  0
   10.8160    1.7220   -0.7670 C   0  0  0  0  0  3  0  0  0  0  0  0
   10.6310    0.3700   -1.0770 C   0  0  0  0  0  0  0  0  0  0  0  0
    9.9830   -0.4900   -0.1770 C   0  0  0  0  0  3  0  0  0  0  0  0
   11.1260   -0.1540   -2.3570 N   0  0  0  0  0  0  0  0  0  0  0  0
   12.3390   -0.0490   -2.5900 O   0  0  0  0  0  0  0  0  0  0  0  0
   10.3040   -0.6690   -3.1270 O   0  0  0  0  0  0  0  0  0  0  0  0
  1  2  2  0  0  0  0
  2  3  1  0  0  0  0
  2  9  1  0  0  0  0
  4  3  2  0  0  0  0
  4 18  1  0  0  0  0
  5  4  1  0  0  0  0
  6  5  1  0  0  0  0
  6  1  1  0  0  0  0
  7  6  2  0  0  0  0
  8  5  1  0  0  0  0
  9 15  2  0  0  0  0
  9 10  1  0  0  0  0
 10 11  2  0  0  0  0
 11 12  1  0  0  0  0
 12 13  1  0  0  0  0
 14 12  2  0  0  0  0
 15 14  1  0  0  0  0
 16 17  1  0  0  0  0
 17  1  1  0  0  0  0
 19 18  1  0  0  0  0
 20 21  1  0  0  0  0
 20 19  1  0  0  0  0
 22 21  2  0  0  0  0
 23 22  1  0  0  0  0
 24 23  2  0  0  0  0
 24 25  1  0  0  0  0
 25 20  2  0  0  0  0
 26 24  1  0  0  0  0
 27 26  2  0  0  0  0
 28 26  2  0  0  0  0
M  END
>  <minimizedAffinity>
-8.10575294

$$$$

 OpenBabel09122220003D

 28 30  0  0  0  0  0  0  0  0999 V2000
   11.0830    0.6280   -1.2580 C   0  0  0  0  0  0  0  0  0  0  0  0
   10.5260    1.1660   -0.1590 C   0  0  0  0  0  0  0  0  0  0  0  0
    9.7970    0.4450    0.7650 N   0  0  0  0  0  0  0  0  0  0  0  0
    9.6980   -0.8270    0.5870 C   0  0  0  0  0  0  0  0  0  0  0  0
   10.2650   -1.4880   -0.4540 N   0  0  0  0  0  0  0  0  0  0  0  0
   10.9220   -0.8280   -1.4490 C   0  0  0  0  0  0  0  0  0  0  0  0
   11.3540   -1.4260   -2.4280 O   0  0  0  0  0  0  0  0  0  0  0  0
   10.1910   -2.4880   -0.5390 H   0  0  0  0  0  0  0  0  0  0  0  0
   10.7500    2.5880    0.1790 C   0  0  0  0  0  0  0  0  0  0  0  0
    9.7420    3.5490    0.0240 C   0  0  0  0  0  3  0  0  0  0  0  0
    9.9930    4.8890    0.3350 C   0  0  0  0  0  3  0  0  0  0  0  0
   11.2480    5.2690    0.8070 C   0  0  0  0  0  0  0  0  0  0  0  0
   11.5860    7.0820    1.2220 Br  0  0  0  0  0  0  0  0  0  0  0  0
   12.2550    4.3230    0.9780 C   0  0  0  0  0  3  0  0  0  0  0  0
   12.0040    2.9840    0.6690 C   0  0  0  0  0  3  0  0  0  0  0  0
   12.6650    2.0200   -3.0720 N   0  0  0  0  0  1  0  0  0  0  0  0
   11.9470    1.3890   -2.2500 C   0  0  0  0  0  2  0  0  0  0  0  0
    8.8550   -1.7970    1.7500 S   0  0  0  0  0  0  0  0  0  0  0  0
    9.3250   -3.4930    1.3410 C   0  0  0  0  0  2  0  0  0  0  0  0
    8.2300   -4.3780    0.7960 C   0  0  0  0  0  0  0  0  0  0  0  0
    8.1550   -4.6220   -0.5870 C   0  0  0  0  0  3  0  0  0  0  0  0
    7.1670   -5.4550   -1.1180 C   0  0  0  0  0  3  0  0  0  0  0  0
    6.2410   -6.0670   -0.2750 C   0  0  0  0  0  3  0  0  0  0  0  0
    6.3130   -5.8430    1.1040 C   0  0  0  0  0  0  0  0  0  0  0  0
    7.3040   -5.0080    1.6440 C   0  0  0  0  0  3  0  0  0  0  0  0
    5.3450   -6.4950    1.9950 N   0  0  0  0  0  0  0  0  0  0  0  0
    4.3220   -6.9710    1.4830 O   0  0  0  0  0  0  0  0  0  0  0  0
    5.6070   -6.5300    3.2050 O   0  0  0  0  0  0  0  0  0  0  0  0
  1  2  2  0  0  0  0
  2  9  1  0  0  0  0
  2  3  1  0  0  0  0
  4  3  2  0  0  0  0
  4 18  1  0  0  0  0
  5  4  1  0  0  0  0
  6  1  1  0  0  0  0
  6  5  1  0  0  0  0
  7  6  2  0  0  0  0
  8  5  1  0  0  0  0
  9 15  1  0  0  0  0
 10  9  2  0  0  0  0
 10 11  1  0  0  0  0
 11 12  2  0  0  0  0
 12 14  1  0  0  0  0
 12 13  1  0  0  0  0
 15 14  2  0  0  0  0
 16 17  1  0  0  0  0
 17  1  1  0  0  0  0
 19 18  1  0  0  0  0
 20 19  1  0  0  0  0
 20 25  1  0  0  0  0
 21 20  2  0  0  0  0
 22 21  1  0  0  0  0
 22 23  2  0  0  0  0
 23 24  1  0  0  0  0
 24 25  2  0  0  0  0
 24 26  1  0  0  0  0
 26 28  2  0  0  0  0
 27 26  2  0  0  0  0
M  END
>  <minimizedAffinity>
-7.67649412

$$$$

 OpenBabel09122220003D

 28 30  0  0  0  0  0  0  0  0999 V2000
    7.1200   -5.4990    0.3180 C   0  0  0  0  0  0  0  0  0  0  0  0
    6.9600   -5.2080    1.6210 C   0  0  0  0  0  0  0  0  0  0  0  0
    7.7460   -4.3090    2.3110 N   0  0  0  0  0  0  0  0  0  0  0  0
    8.6480   -3.6720    1.6460 C   0  0  0  0  0  0  0  0  0  0  0  0
    8.8640   -3.8410    0.3170 N   0  0  0  0  0  0  0  0  0  0  0  0
    8.1850   -4.7760   -0.4060 C   0  0  0  0  0  0  0  0  0  0  0  0
    8.4500   -4.9800   -1.5850 O   0  0  0  0  0  0  0  0  0  0  0  0
    9.5580   -3.3000   -0.1710 H   0  0  0  0  0  0  0  0  0  0  0  0
    5.8350   -5.7860    2.3870 C   0  0  0  0  0  0  0  0  0  0  0  0
    4.8700   -4.9760    3.0010 C   0  0  0  0  0  3  0  0  0  0  0  0
    3.8290   -5.5540    3.7350 C   0  0  0  0  0  3  0  0  0  0  0  0
    3.7470   -6.9400    3.8510 C   0  0  0  0  0  0  0  0  0  0  0  0
    2.3420   -7.7190    4.8470 Br  0  0  0  0  0  0  0  0  0  0  0  0
    4.6920   -7.7580    3.2350 C   0  0  0  0  0  3  0  0  0  0  0  0
    5.7310   -7.1810    2.5010 C   0  0  0  0  0  3  0  0  0  0  0  0
    5.4750   -7.2060   -1.1360 N   0  0  0  0  0  1  0  0  0  0  0  0
    6.2210   -6.4320   -0.4770 C   0  0  0  0  0  2  0  0  0  0  0  0
    9.6220   -2.4790    2.4410 S   0  0  0  0  0  0  0  0  0  0  0  0
    8.7900   -0.9150    2.0860 C   0  0  0  0  0  2  0  0  0  0  0  0
    9.4820    0.0040    1.1070 C   0  0  0  0  0  0  0  0  0  0  0  0
   10.0030   -0.5190   -0.0890 C   0  0  0  0  0  3  0  0  0  0  0  0
   10.6280    0.3100   -1.0240 C   0  0  0  0  0  3  0  0  0  0  0  0
   10.7350    1.6790   -0.7840 C   0  0  0  0  0  3  0  0  0  0  0  0
   10.2070    2.2130    0.3970 C   0  0  0  0  0  0  0  0  0  0  0  0
    9.5770    1.3860    1.3390 C   0  0  0  0  0  3  0  0  0  0  0  0
   10.3100    3.6570    0.6470 N   0  0  0  0  0  0  0  0  0  0  0  0
   11.3300    4.0720    1.2150 O   0  0  0  0  0  0  0  0  0  0  0  0
    9.3710    4.3740    0.2740 O   0  0  0  0  0  0  0  0  0  0  0  0
  1  2  2  0  0  0  0
  2  3  1  0  0  0  0
  2  9  1  0  0  0  0
  4  3  2  0  0  0  0
  4 18  1  0  0  0  0
  5  4  1  0  0  0  0
  6  5  1  0  0  0  0
  6  1  1  0  0  0  0
  7  6  2  0  0  0  0
  8  5  1  0  0  0  0
  9 15  2  0  0  0  0
  9 10  1  0  0  0  0
 10 11  2  0  0  0  0
 11 12  1  0  0  0  0
 12 13  1  0  0  0  0
 14 12  2  0  0  0  0
 15 14  1  0  0  0  0
 16 17  1  0  0  0  0
 17  1  1  0  0  0  0
 19 18  1  0  0  0  0
 20 25  1  0  0  0  0
 20 19  1  0  0  0  0
 21 20  2  0  0  0  0
 22 23  2  0  0  0  0
 22 21  1  0  0  0  0
 23 24  1  0  0  0  0
 24 26  1  0  0  0  0
 24 25  2  0  0  0  0
 26 27  2  0  0  0  0
 28 26  2  0  0  0  0
M  END
>  <minimizedAffinity>
-7.63993025

$$$$

 OpenBabel09122220003D

 28 30  0  0  0  0  0  0  0  0999 V2000
    4.0500   -3.0550    5.7860 C   0  0  0  0  0  0  0  0  0  0  0  0
    5.1370   -3.8330    5.6420 C   0  0  0  0  0  0  0  0  0  0  0  0
    5.2130   -4.8920    4.7610 N   0  0  0  0  0  0  0  0  0  0  0  0
    4.2000   -5.1060    3.9940 C   0  0  0  0  0  0  0  0  0  0  0  0
    3.0710   -4.3520    4.0110 N   0  0  0  0  0  0  0  0  0  0  0  0
    2.8940   -3.3480    4.9160 C   0  0  0  0  0  0  0  0  0  0  0  0
    1.8360   -2.7320    4.9790 O   0  0  0  0  0  0  0  0  0  0  0  0
    2.3140   -4.5340    3.3740 H   0  0  0  0  0  0  0  0  0  0  0  0
    6.3840   -3.5270    6.3760 C   0  0  0  0  0  0  0  0  0  0  0  0
    6.5280   -3.8260    7.7370 C   0  0  0  0  0  3  0  0  0  0  0  0
    7.7140   -3.5060    8.4070 C   0  0  0  0  0  3  0  0  0  0  0  0
    8.7570   -2.8940    7.7160 C   0  0  0  0  0  0  0  0  0  0  0  0
   10.3570   -2.4580    8.6240 Br  0  0  0  0  0  0  0  0  0  0  0  0
    8.6330   -2.6030    6.3600 C   0  0  0  0  0  3  0  0  0  0  0  0
    7.4500   -2.9230    5.6910 C   0  0  0  0  0  3  0  0  0  0  0  0
    3.9040   -0.8340    7.4540 N   0  0  0  0  0  1  0  0  0  0  0  0
    3.9700   -1.8410    6.6970 C   0  0  0  0  0  2  0  0  0  0  0  0
    4.2610   -6.3790    2.8200 S   0  0  0  0  0  0  0  0  0  0  0  0
    6.0260   -6.6350    2.5320 C   0  0  0  0  0  2  0  0  0  0  0  0
    6.5790   -6.0950    1.2350 C   0  0  0  0  0  0  0  0  0  0  0  0
    5.8950   -6.3410    0.0320 C   0  0  0  0  0  3  0  0  0  0  0  0
    6.3700   -5.8350   -1.1810 C   0  0  0  0  0  3  0  0  0  0  0  0
    7.5330   -5.0670   -1.2120 C   0  0  0  0  0  3  0  0  0  0  0  0
    8.2150   -4.8050   -0.0180 C   0  0  0  0  0  0  0  0  0  0  0  0
    7.7420   -5.3080    1.2030 C   0  0  0  0  0  3  0  0  0  0  0  0
    9.4340   -3.9870   -0.0470 N   0  0  0  0  0  0  0  0  0  0  0  0
   10.1310   -4.0280   -1.0710 O   0  0  0  0  0  0  0  0  0  0  0  0
    9.6940   -3.3040    0.9530 O   0  0  0  0  0  0  0  0  0  0  0  0
  1 17  1  0  0  0  0
  2  1  2  0  0  0  0
  2  9  1  0  0  0  0
  3  2  1  0  0  0  0
  4  5  1  0  0  0  0
  4  3  2  0  0  0  0
  5  6  1  0  0  0  0
  6  7  2  0  0  0  0
  6  1  1  0  0  0  0
  8  5  1  0  0  0  0
  9 10  1  0  0  0  0
 10 11  2  0  0  0  0
 12 11  1  0  0  0  0
 12 13  1  0  0  0  0
 14 12  2  0  0  0  0
 15 14  1  0  0  0  0
 15  9  2  0  0  0  0
 17 16  1  0  0  0  0
 18  4  1  0  0  0  0
 19 18  1  0  0  0  0
 20 19  1  0  0  0  0
 21 20  2  0  0  0  0
 22 21  1  0  0  0  0
 23 22  2  0  0  0  0
 23 24  1  0  0  0  0
 24 25  2  0  0  0  0
 25 20  1  0  0  0  0
 26 24  1  0  0  0  0
 26 28  2  0  0  0  0
 27 26  2  0  0  0  0
M  END
>  <minimizedAffinity>
-7.53744793

$$$$

 OpenBabel09122220003D

 28 30  0  0  0  0  0  0  0  0999 V2000
    5.7210   -5.9670    2.4740 C   0  0  0  0  0  0  0  0  0  0  0  0
    6.0010   -4.7180    2.8850 C   0  0  0  0  0  0  0  0  0  0  0  0
    7.0600   -3.9720    2.4100 N   0  0  0  0  0  0  0  0  0  0  0  0
    7.7830   -4.4880    1.4760 C   0  0  0  0  0  0  0  0  0  0  0  0
    7.5610   -5.7170    0.9440 N   0  0  0  0  0  0  0  0  0  0  0  0
    6.5890   -6.5420    1.4270 C   0  0  0  0  0  0  0  0  0  0  0  0
    6.4560   -7.6820    0.9980 O   0  0  0  0  0  0  0  0  0  0  0  0
    8.1310   -6.0710    0.1940 H   0  0  0  0  0  0  0  0  0  0  0  0
    5.1050   -4.0180    3.8300 C   0  0  0  0  0  0  0  0  0  0  0  0
    3.8450   -3.5470    3.4380 C   0  0  0  0  0  3  0  0  0  0  0  0
    3.0300   -2.8710    4.3520 C   0  0  0  0  0  3  0  0  0  0  0  0
    3.4690   -2.6730    5.6590 C   0  0  0  0  0  0  0  0  0  0  0  0
    2.3680   -1.7570    6.8920 Br  0  0  0  0  0  0  0  0  0  0  0  0
    4.7130   -3.1480    6.0670 C   0  0  0  0  0  3  0  0  0  0  0  0
    5.5270   -3.8230    5.1540 C   0  0  0  0  0  3  0  0  0  0  0  0
    3.5230   -7.4520    3.3110 N   0  0  0  0  0  1  0  0  0  0  0  0
    4.5190   -6.7790    2.9320 C   0  0  0  0  0  2  0  0  0  0  0  0
    9.0860   -3.5740    0.7900 S   0  0  0  0  0  0  0  0  0  0  0  0
    9.0620   -2.0120    1.6990 C   0  0  0  0  0  2  0  0  0  0  0  0
    9.5160   -0.7880    0.9410 C   0  0  0  0  0  0  0  0  0  0  0  0
    9.4840    0.4700    1.5660 C   0  0  0  0  0  3  0  0  0  0  0  0
    9.9200    1.6170    0.8970 C   0  0  0  0  0  3  0  0  0  0  0  0
   10.4040    1.5250   -0.4060 C   0  0  0  0  0  3  0  0  0  0  0  0
   10.4540    0.2750   -1.0340 C   0  0  0  0  0  0  0  0  0  0  0  0
   10.0190   -0.8810   -0.3680 C   0  0  0  0  0  3  0  0  0  0  0  0
   10.9730    0.1750   -2.4040 N   0  0  0  0  0  0  0  0  0  0  0  0
   11.8900    0.9420   -2.7300 O   0  0  0  0  0  0  0  0  0  0  0  0
   10.4650   -0.6710   -3.1530 O   0  0  0  0  0  0  0  0  0  0  0  0
  1  2  2  0  0  0  0
  1 17  1  0  0  0  0
  2  9  1  0  0  0  0
  3  2  1  0  0  0  0
  4  3  2  0  0  0  0
  5  6  1  0  0  0  0
  5  4  1  0  0  0  0
  6  1  1  0  0  0  0
  7  6  2  0  0  0  0
  8  5  1  0  0  0  0
  9 15  1  0  0  0  0
 10  9  2  0  0  0  0
 10 11  1  0  0  0  0
 11 12  2  0  0  0  0
 12 14  1  0  0  0  0
 12 13  1  0  0  0  0
 15 14  2  0  0  0  0
 17 16  1  0  0  0  0
 18  4  1  0  0  0  0
 18 19  1  0  0  0  0
 20 21  1  0  0  0  0
 20 19  1  0  0  0  0
 22 21  2  0  0  0  0
 23 22  1  0  0  0  0
 24 23  2  0  0  0  0
 24 25  1  0  0  0  0
 25 20  2  0  0  0  0
 26 24  1  0  0  0  0
 27 26  2  0  0  0  0
 28 26  2  0  0  0  0
M  END
>  <minimizedAffinity>
-7.53046274

$$$$

 OpenBabel09122220003D

 28 30  0  0  0  0  0  0  0  0999 V2000
    9.0190   -3.6950    0.7220 C   0  0  0  0  0  0  0  0  0  0  0  0
    8.4620   -3.5320    1.9350 C   0  0  0  0  0  0  0  0  0  0  0  0
    7.3590   -4.2350    2.3740 N   0  0  0  0  0  0  0  0  0  0  0  0
    6.8760   -5.1400    1.5930 C   0  0  0  0  0  0  0  0  0  0  0  0
    7.3890   -5.4310    0.3710 N   0  0  0  0  0  0  0  0  0  0  0  0
    8.4210   -4.7160   -0.1610 C   0  0  0  0  0  0  0  0  0  0  0  0
    8.8180   -4.9320   -1.3010 O   0  0  0  0  0  0  0  0  0  0  0  0
    7.0020   -6.1670   -0.1950 H   0  0  0  0  0  0  0  0  0  0  0  0
    9.0770   -2.6290    2.9300 C   0  0  0  0  0  0  0  0  0  0  0  0
    9.6800   -3.1200    4.0960 C   0  0  0  0  0  3  0  0  0  0  0  0
   10.2360   -2.2370    5.0270 C   0  0  0  0  0  3  0  0  0  0  0  0
   10.1970   -0.8640    4.7900 C   0  0  0  0  0  0  0  0  0  0  0  0
   10.9460    0.3290    6.0520 Br  0  0  0  0  0  0  0  0  0  0  0  0
    9.6140   -0.3620    3.6300 C   0  0  0  0  0  3  0  0  0  0  0  0
    9.0590   -1.2450    2.7000 C   0  0  0  0  0  3  0  0  0  0  0  0
   11.3170   -2.3940   -0.1510 N   0  0  0  0  0  1  0  0  0  0  0  0
   10.2750   -2.9840    0.2450 C   0  0  0  0  0  2  0  0  0  0  0  0
    5.5340   -6.1030    2.1170 S   0  0  0  0  0  0  0  0  0  0  0  0
    4.1990   -4.9110    2.3630 C   0  0  0  0  0  2  0  0  0  0  0  0
    3.9590   -4.4570    3.7830 C   0  0  0  0  0  0  0  0  0  0  0  0
    4.5880   -5.1300    4.8440 C   0  0  0  0  0  3  0  0  0  0  0  0
    4.4040   -4.7180    6.1660 C   0  0  0  0  0  3  0  0  0  0  0  0
    3.5950   -3.6200    6.4510 C   0  0  0  0  0  3  0  0  0  0  0  0
    2.9740   -2.9330    5.4010 C   0  0  0  0  0  0  0  0  0  0  0  0
    3.1560   -3.3410    4.0710 C   0  0  0  0  0  3  0  0  0  0  0  0
    2.1290   -1.7690    5.6980 N   0  0  0  0  0  0  0  0  0  0  0  0
    1.2170   -1.5030    4.9030 O   0  0  0  0  0  0  0  0  0  0  0  0
    2.3780   -1.1220    6.7240 O   0  0  0  0  0  0  0  0  0  0  0  0
  1  2  2  0  0  0  0
  2  3  1  0  0  0  0
  2  9  1  0  0  0  0
  4 18  1  0  0  0  0
  4  3  2  0  0  0  0
  5  4  1  0  0  0  0
  6  5  1  0  0  0  0
  6  1  1  0  0  0  0
  7  6  2  0  0  0  0
  8  5  1  0  0  0  0
  9 10  1  0  0  0  0
 10 11  2  0  0  0  0
 12 11  1  0  0  0  0
 12 13  1  0  0  0  0
 14 12  2  0  0  0  0
 15  9  2  0  0  0  0
 15 14  1  0  0  0  0
 16 17  1  0  0  0  0
 17  1  1  0  0  0  0
 18 19  1  0  0  0  0
 19 20  1  0  0  0  0
 20 25  2  0  0  0  0
 20 21  1  0  0  0  0
 21 22  2  0  0  0  0
 22 23  1  0  0  0  0
 24 26  1  0  0  0  0
 24 23  2  0  0  0  0
 25 24  1  0  0  0  0
 26 28  2  0  0  0  0
 27 26  2  0  0  0  0
M  END
>  <minimizedAffinity>
-7.41385126

$$$$

 OpenBabel09122220003D

 28 30  0  0  0  0  0  0  0  0999 V2000
    9.0080   -3.6880    0.7300 C   0  0  0  0  0  0  0  0  0  0  0  0
    8.4650   -3.5260    1.9500 C   0  0  0  0  0  0  0  0  0  0  0  0
    7.3790   -4.2410    2.4100 N   0  0  0  0  0  0  0  0  0  0  0  0
    6.8980   -5.1570    1.6410 C   0  0  0  0  0  0  0  0  0  0  0  0
    7.3980   -5.4480    0.4130 N   0  0  0  0  0  0  0  0  0  0  0  0
    8.4120   -4.7220   -0.1380 C   0  0  0  0  0  0  0  0  0  0  0  0
    8.7950   -4.9380   -1.2820 O   0  0  0  0  0  0  0  0  0  0  0  0
    7.0130   -6.1920   -0.1440 H   0  0  0  0  0  0  0  0  0  0  0  0
    9.0820   -2.6080    2.9320 C   0  0  0  0  0  0  0  0  0  0  0  0
    9.6980   -3.0830    4.0970 C   0  0  0  0  0  3  0  0  0  0  0  0
   10.2550   -2.1870    5.0150 C   0  0  0  0  0  3  0  0  0  0  0  0
   10.2040   -0.8170    4.7660 C   0  0  0  0  0  0  0  0  0  0  0  0
   10.9540    0.3930    6.0100 Br  0  0  0  0  0  0  0  0  0  0  0  0
    9.6070   -0.3310    3.6060 C   0  0  0  0  0  3  0  0  0  0  0  0
    9.0510   -1.2260    2.6890 C   0  0  0  0  0  3  0  0  0  0  0  0
   11.2740   -2.3590   -0.1820 N   0  0  0  0  0  1  0  0  0  0  0  0
   10.2460   -2.9610    0.2320 C   0  0  0  0  0  2  0  0  0  0  0  0
    5.5770   -6.1360    2.1890 S   0  0  0  0  0  0  0  0  0  0  0  0
    4.2120   -4.9700    2.3940 C   0  0  0  0  0  2  0  0  0  0  0  0
    4.1230   -4.2730    3.7300 C   0  0  0  0  0  0  0  0  0  0  0  0
    3.2110   -3.2170    3.9050 C   0  0  0  0  0  3  0  0  0  0  0  0
    3.0890   -2.5680    5.1360 C   0  0  0  0  0  3  0  0  0  0  0  0
    3.8710   -2.9690    6.2180 C   0  0  0  0  0  3  0  0  0  0  0  0
    4.7720   -4.0280    6.0600 C   0  0  0  0  0  0  0  0  0  0  0  0
    4.8980   -4.6850    4.8270 C   0  0  0  0  0  3  0  0  0  0  0  0
    5.5890   -4.4590    7.2020 N   0  0  0  0  0  0  0  0  0  0  0  0
    5.2330   -5.4760    7.8140 O   0  0  0  0  0  0  0  0  0  0  0  0
    6.5860   -3.7810    7.4860 O   0  0  0  0  0  0  0  0  0  0  0  0
  1  2  2  0  0  0  0
  2  3  1  0  0  0  0
  2  9  1  0  0  0  0
  4 18  1  0  0  0  0
  4  3  2  0  0  0  0
  5  4  1  0  0  0  0
  6  5  1  0  0  0  0
  6  1  1  0  0  0  0
  7  6  2  0  0  0  0
  8  5  1  0  0  0  0
  9 10  1  0  0  0  0
 10 11  2  0  0  0  0
 12 11  1  0  0  0  0
 12 13  1  0  0  0  0
 14 12  2  0  0  0  0
 15  9  2  0  0  0  0
 15 14  1  0  0  0  0
 16 17  1  0  0  0  0
 17  1  1  0  0  0  0
 18 19  1  0  0  0  0
 19 20  1  0  0  0  0
 20 21  2  0  0  0  0
 20 25  1  0  0  0  0
 21 22  1  0  0  0  0
 22 23  2  0  0  0  0
 24 23  1  0  0  0  0
 24 26  1  0  0  0  0
 25 24  2  0  0  0  0
 26 28  2  0  0  0  0
 26 27  2  0  0  0  0
M  END
>  <minimizedAffinity>
-7.3390789

$$$$

 OpenBabel09122220003D

 28 30  0  0  0  0  0  0  0  0999 V2000
    4.0940   -2.9820    5.3000 C   0  0  0  0  0  0  0  0  0  0  0  0
    5.2450   -3.6770    5.2680 C   0  0  0  0  0  0  0  0  0  0  0  0
    5.6630   -4.4220    4.1850 N   0  0  0  0  0  0  0  0  0  0  0  0
    4.9310   -4.3990    3.1250 C   0  0  0  0  0  0  0  0  0  0  0  0
    3.7780   -3.6890    3.0220 N   0  0  0  0  0  0  0  0  0  0  0  0
    3.2620   -3.0040    4.0810 C   0  0  0  0  0  0  0  0  0  0  0  0
    2.1760   -2.4390    4.0010 O   0  0  0  0  0  0  0  0  0  0  0  0
    3.2520   -3.6730    2.1650 H   0  0  0  0  0  0  0  0  0  0  0  0
    6.2000   -3.6020    6.3940 C   0  0  0  0  0  0  0  0  0  0  0  0
    5.9840   -4.3000    7.5900 C   0  0  0  0  0  3  0  0  0  0  0  0
    6.8990   -4.1920    8.6440 C   0  0  0  0  0  3  0  0  0  0  0  0
    8.0310   -3.3930    8.5000 C   0  0  0  0  0  0  0  0  0  0  0  0
    9.2630   -3.2450    9.9260 Br  0  0  0  0  0  0  0  0  0  0  0  0
    8.2650   -2.7040    7.3130 C   0  0  0  0  0  3  0  0  0  0  0  0
    7.3530   -2.8130    6.2610 C   0  0  0  0  0  3  0  0  0  0  0  0
    3.2800   -1.3660    7.4120 N   0  0  0  0  0  1  0  0  0  0  0  0
    3.6490   -2.0990    6.4550 C   0  0  0  0  0  2  0  0  0  0  0  0
    5.4380   -5.2590    1.7080 S   0  0  0  0  0  0  0  0  0  0  0  0
    7.2230   -5.4450    1.9150 C   0  0  0  0  0  2  0  0  0  0  0  0
    8.0650   -4.2330    1.5940 C   0  0  0  0  0  0  0  0  0  0  0  0
    8.1090   -3.1580    2.4990 C   0  0  0  0  0  3  0  0  0  0  0  0
    8.8970   -2.0330    2.2400 C   0  0  0  0  0  3  0  0  0  0  0  0
    9.6610   -1.9670    1.0760 C   0  0  0  0  0  3  0  0  0  0  0  0
    9.6350   -3.0380    0.1750 C   0  0  0  0  0  0  0  0  0  0  0  0
    8.8480   -4.1710    0.4300 C   0  0  0  0  0  3  0  0  0  0  0  0
   10.4480   -2.9740   -1.0470 N   0  0  0  0  0  0  0  0  0  0  0  0
   10.9810   -4.0220   -1.4380 O   0  0  0  0  0  0  0  0  0  0  0  0
   10.5520   -1.8780   -1.6140 O   0  0  0  0  0  0  0  0  0  0  0  0
  1 17  1  0  0  0  0
  2  1  2  0  0  0  0
  2  9  1  0  0  0  0
  3  2  1  0  0  0  0
  4  3  2  0  0  0  0
  5  4  1  0  0  0  0
  5  6  1  0  0  0  0
  6  1  1  0  0  0  0
  7  6  2  0  0  0  0
  8  5  1  0  0  0  0
  9 10  1  0  0  0  0
 10 11  2  0  0  0  0
 12 11  1  0  0  0  0
 12 13  1  0  0  0  0
 14 12  2  0  0  0  0
 15  9  2  0  0  0  0
 15 14  1  0  0  0  0
 17 16  1  0  0  0  0
 18 19  1  0  0  0  0
 18  4  1  0  0  0  0
 20 19  1  0  0  0  0
 20 21  1  0  0  0  0
 22 21  2  0  0  0  0
 23 22  1  0  0  0  0
 24 25  1  0  0  0  0
 24 23  2  0  0  0  0
 25 20  2  0  0  0  0
 26 24  1  0  0  0  0
 27 26  2  0  0  0  0
 28 26  2  0  0  0  0
M  END
>  <minimizedAffinity>
-7.33702612

$$$$

 OpenBabel09122220003D

 28 30  0  0  0  0  0  0  0  0999 V2000
    8.4490   -2.7060    4.7820 C   0  0  0  0  0  0  0  0  0  0  0  0
    7.9680   -2.8870    3.5400 C   0  0  0  0  0  0  0  0  0  0  0  0
    6.7450   -3.4650    3.2650 N   0  0  0  0  0  0  0  0  0  0  0  0
    6.0030   -3.7950    4.2660 C   0  0  0  0  0  0  0  0  0  0  0  0
    6.3590   -3.6090    5.5620 N   0  0  0  0  0  0  0  0  0  0  0  0
    7.5870   -3.1270    5.9050 C   0  0  0  0  0  0  0  0  0  0  0  0
    7.9300   -3.0460    7.0790 O   0  0  0  0  0  0  0  0  0  0  0  0
    5.7360   -3.8530    6.3140 H   0  0  0  0  0  0  0  0  0  0  0  0
    8.7050   -2.3740    2.3650 C   0  0  0  0  0  0  0  0  0  0  0  0
    9.4740   -3.2180    1.5530 C   0  0  0  0  0  3  0  0  0  0  0  0
   10.1750   -2.6980    0.4600 C   0  0  0  0  0  3  0  0  0  0  0  0
   10.1030   -1.3360    0.1750 C   0  0  0  0  0  0  0  0  0  0  0  0
   11.0550   -0.6330   -1.3000 Br  0  0  0  0  0  0  0  0  0  0  0  0
    9.3330   -0.4870    0.9650 C   0  0  0  0  0  3  0  0  0  0  0  0
    8.6310   -1.0070    2.0560 C   0  0  0  0  0  3  0  0  0  0  0  0
   10.8470   -1.4300    5.3800 N   0  0  0  0  0  1  0  0  0  0  0  0
    9.7600   -2.0090    5.1090 C   0  0  0  0  0  2  0  0  0  0  0  0
    4.4270   -4.4620    3.9860 S   0  0  0  0  0  0  0  0  0  0  0  0
    4.7480   -6.1700    3.4920 C   0  0  0  0  0  2  0  0  0  0  0  0
    5.0530   -6.3980    2.0310 C   0  0  0  0  0  0  0  0  0  0  0  0
    4.1630   -7.1490    1.2430 C   0  0  0  0  0  3  0  0  0  0  0  0
    4.4070   -7.3570   -0.1170 C   0  0  0  0  0  3  0  0  0  0  0  0
    5.5410   -6.8110   -0.7160 C   0  0  0  0  0  3  0  0  0  0  0  0
    6.4270   -6.0500    0.0550 C   0  0  0  0  0  0  0  0  0  0  0  0
    6.1860   -5.8350    1.4210 C   0  0  0  0  0  3  0  0  0  0  0  0
    7.6160   -5.4640   -0.5770 N   0  0  0  0  0  0  0  0  0  0  0  0
    8.7180   -5.7050   -0.0630 O   0  0  0  0  0  0  0  0  0  0  0  0
    7.4490   -4.7640   -1.5850 O   0  0  0  0  0  0  0  0  0  0  0  0
  1 17  1  0  0  0  0
  1  6  1  0  0  0  0
  2  1  2  0  0  0  0
  3  2  1  0  0  0  0
  3  4  2  0  0  0  0
  4  5  1  0  0  0  0
  5  6  1  0  0  0  0
  5  8  1  0  0  0  0
  6  7  2  0  0  0  0
  9  2  1  0  0  0  0
 10  9  2  0  0  0  0
 11 10  1  0  0  0  0
 12 11  2  0  0  0  0
 12 14  1  0  0  0  0
 13 12  1  0  0  0  0
 14 15  2  0  0  0  0
 15  9  1  0  0  0  0
 17 16  1  0  0  0  0
 18  4  1  0  0  0  0
 19 18  1  0  0  0  0
 20 19  1  0  0  0  0
 21 20  2  0  0  0  0
 22 21  1  0  0  0  0
 23 22  2  0  0  0  0
 23 24  1  0  0  0  0
 24 25  2  0  0  0  0
 25 20  1  0  0  0  0
 26 27  2  0  0  0  0
 26 24  1  0  0  0  0
 28 26  2  0  0  0  0
M  END
>  <minimizedAffinity>
-7.26995468

$$$$

 OpenBabel09122220003D

 28 30  0  0  0  0  0  0  0  0999 V2000
    5.7030   -5.5220    2.7230 C   0  0  0  0  0  0  0  0  0  0  0  0
    5.9760   -4.3390    3.3010 C   0  0  0  0  0  0  0  0  0  0  0  0
    7.0760   -3.5660    2.9890 N   0  0  0  0  0  0  0  0  0  0  0  0
    7.8500   -3.9820    2.0460 C   0  0  0  0  0  0  0  0  0  0  0  0
    7.6440   -5.1310    1.3540 N   0  0  0  0  0  0  0  0  0  0  0  0
    6.6290   -5.9850    1.6700 C   0  0  0  0  0  0  0  0  0  0  0  0
    6.5050   -7.0610    1.0960 O   0  0  0  0  0  0  0  0  0  0  0  0
    8.2550   -5.4040    0.6040 H   0  0  0  0  0  0  0  0  0  0  0  0
    5.0310   -3.7380    4.2670 C   0  0  0  0  0  0  0  0  0  0  0  0
    3.7650   -3.2850    3.8740 C   0  0  0  0  0  3  0  0  0  0  0  0
    2.9020   -2.7040    4.8090 C   0  0  0  0  0  3  0  0  0  0  0  0
    3.3020   -2.5810    6.1390 C   0  0  0  0  0  0  0  0  0  0  0  0
    2.1370   -1.7920    7.4010 Br  0  0  0  0  0  0  0  0  0  0  0  0
    4.5520   -3.0380    6.5470 C   0  0  0  0  0  3  0  0  0  0  0  0
    5.4130   -3.6200    5.6120 C   0  0  0  0  0  3  0  0  0  0  0  0
    3.4310   -7.0440    3.2310 N   0  0  0  0  0  1  0  0  0  0  0  0
    4.4610   -6.3530    3.0000 C   0  0  0  0  0  2  0  0  0  0  0  0
    9.2090   -3.0220    1.5620 S   0  0  0  0  0  0  0  0  0  0  0  0
    9.5690   -3.5760   -0.1200 C   0  0  0  0  0  2  0  0  0  0  0  0
   10.6340   -2.8070   -0.8650 C   0  0  0  0  0  0  0  0  0  0  0  0
   11.7160   -3.4960   -1.4410 C   0  0  0  0  0  3  0  0  0  0  0  0
   12.7040   -2.8150   -2.1550 C   0  0  0  0  0  3  0  0  0  0  0  0
   12.6240   -1.4330   -2.3150 C   0  0  0  0  0  3  0  0  0  0  0  0
   11.5450   -0.7380   -1.7580 C   0  0  0  0  0  0  0  0  0  0  0  0
   10.5480   -1.4160   -1.0410 C   0  0  0  0  0  3  0  0  0  0  0  0
   11.4530    0.7180   -1.9340 N   0  0  0  0  0  0  0  0  0  0  0  0
   10.7370    1.3490   -1.1440 O   0  0  0  0  0  0  0  0  0  0  0  0
   12.0970    1.2280   -2.8610 O   0  0  0  0  0  0  0  0  0  0  0  0
  1 17  1  0  0  0  0
  1  2  2  0  0  0  0
  2  9  1  0  0  0  0
  3  2  1  0  0  0  0
  4  3  2  0  0  0  0
  5  6  1  0  0  0  0
  5  4  1  0  0  0  0
  6  1  1  0  0  0  0
  7  6  2  0  0  0  0
  8  5  1  0  0  0  0
  9 15  1  0  0  0  0
 10  9  2  0  0  0  0
 10 11  1  0  0  0  0
 11 12  2  0  0  0  0
 12 14  1  0  0  0  0
 12 13  1  0  0  0  0
 15 14  2  0  0  0  0
 17 16  1  0  0  0  0
 18  4  1  0  0  0  0
 19 18  1  0  0  0  0
 20 19  1  0  0  0  0
 21 20  2  0  0  0  0
 22 21  1  0  0  0  0
 23 22  2  0  0  0  0
 23 24  1  0  0  0  0
 24 25  2  0  0  0  0
 25 20  1  0  0  0  0
 26 24  1  0  0  0  0
 26 27  2  0  0  0  0
 28 26  2  0  0  0  0
M  END
>  <minimizedAffinity>
-7.25488043

$$$$
