
 OpenBabel09122222393D

 28 30  0  0  0  0  0  0  0  0999 V2000
    4.0940   -2.9820    5.3000 C   0  0  0  0  0  0  0  0  0  0  0  0
    5.2450   -3.6770    5.2680 C   0  0  0  0  0  0  0  0  0  0  0  0
    5.6630   -4.4220    4.1850 N   0  0  0  0  0  0  0  0  0  0  0  0
    4.9310   -4.3990    3.1250 C   0  0  0  0  0  0  0  0  0  0  0  0
    3.7780   -3.6890    3.0220 N   0  0  0  0  0  0  0  0  0  0  0  0
    3.2620   -3.0040    4.0810 C   0  0  0  0  0  0  0  0  0  0  0  0
    2.1760   -2.4390    4.0010 O   0  0  0  0  0  0  0  0  0  0  0  0
    3.2520   -3.6730    2.1650 H   0  0  0  0  0  0  0  0  0  0  0  0
    6.2000   -3.6020    6.3940 C   0  0  0  0  0  0  0  0  0  0  0  0
    5.9840   -4.3000    7.5900 C   0  0  0  0  0  3  0  0  0  0  0  0
    6.8990   -4.1920    8.6440 C   0  0  0  0  0  3  0  0  0  0  0  0
    8.0310   -3.3930    8.5000 C   0  0  0  0  0  0  0  0  0  0  0  0
    9.2630   -3.2450    9.9260 Br  0  0  0  0  0  0  0  0  0  0  0  0
    8.2650   -2.7040    7.3130 C   0  0  0  0  0  3  0  0  0  0  0  0
    7.3530   -2.8130    6.2610 C   0  0  0  0  0  3  0  0  0  0  0  0
    3.2800   -1.3660    7.4120 N   0  0  0  0  0  1  0  0  0  0  0  0
    3.6490   -2.0990    6.4550 C   0  0  0  0  0  2  0  0  0  0  0  0
    5.4380   -5.2590    1.7080 S   0  0  0  0  0  0  0  0  0  0  0  0
    7.2230   -5.4450    1.9150 C   0  0  0  0  0  2  0  0  0  0  0  0
    8.0650   -4.2330    1.5940 C   0  0  0  0  0  0  0  0  0  0  0  0
    8.1090   -3.1580    2.4990 C   0  0  0  0  0  3  0  0  0  0  0  0
    8.8970   -2.0330    2.2400 C   0  0  0  0  0  3  0  0  0  0  0  0
    9.6610   -1.9670    1.0760 C   0  0  0  0  0  3  0  0  0  0  0  0
    9.6350   -3.0380    0.1750 C   0  0  0  0  0  0  0  0  0  0  0  0
    8.8480   -4.1710    0.4300 C   0  0  0  0  0  3  0  0  0  0  0  0
   10.4480   -2.9740   -1.0470 N   0  0  0  0  0  0  0  0  0  0  0  0
   10.9810   -4.0220   -1.4380 O   0  0  0  0  0  0  0  0  0  0  0  0
   10.5520   -1.8780   -1.6140 O   0  0  0  0  0  0  0  0  0  0  0  0
  1 17  1  0  0  0  0
  2  1  2  0  0  0  0
  2  9  1  0  0  0  0
  3  2  1  0  0  0  0
  4  3  2  0  0  0  0
  5  4  1  0  0  0  0
  5  6  1  0  0  0  0
  6  1  1  0  0  0  0
  7  6  2  0  0  0  0
  8  5  1  0  0  0  0
  9 10  1  0  0  0  0
 10 11  2  0  0  0  0
 12 11  1  0  0  0  0
 12 13  1  0  0  0  0
 14 12  2  0  0  0  0
 15  9  2  0  0  0  0
 15 14  1  0  0  0  0
 17 16  1  0  0  0  0
 18 19  1  0  0  0  0
 18  4  1  0  0  0  0
 20 19  1  0  0  0  0
 20 21  1  0  0  0  0
 22 21  2  0  0  0  0
 23 22  1  0  0  0  0
 24 25  1  0  0  0  0
 24 23  2  0  0  0  0
 25 20  2  0  0  0  0
 26 24  1  0  0  0  0
 27 26  2  0  0  0  0
 28 26  2  0  0  0  0
M  END
>  <minimizedAffinity>
-7.33702612

$$$$
