
 OpenBabel09122222393D

 28 30  0  0  0  0  0  0  0  0999 V2000
    9.0080   -3.6880    0.7300 C   0  0  0  0  0  0  0  0  0  0  0  0
    8.4650   -3.5260    1.9500 C   0  0  0  0  0  0  0  0  0  0  0  0
    7.3790   -4.2410    2.4100 N   0  0  0  0  0  0  0  0  0  0  0  0
    6.8980   -5.1570    1.6410 C   0  0  0  0  0  0  0  0  0  0  0  0
    7.3980   -5.4480    0.4130 N   0  0  0  0  0  0  0  0  0  0  0  0
    8.4120   -4.7220   -0.1380 C   0  0  0  0  0  0  0  0  0  0  0  0
    8.7950   -4.9380   -1.2820 O   0  0  0  0  0  0  0  0  0  0  0  0
    7.0130   -6.1920   -0.1440 H   0  0  0  0  0  0  0  0  0  0  0  0
    9.0820   -2.6080    2.9320 C   0  0  0  0  0  0  0  0  0  0  0  0
    9.6980   -3.0830    4.0970 C   0  0  0  0  0  3  0  0  0  0  0  0
   10.2550   -2.1870    5.0150 C   0  0  0  0  0  3  0  0  0  0  0  0
   10.2040   -0.8170    4.7660 C   0  0  0  0  0  0  0  0  0  0  0  0
   10.9540    0.3930    6.0100 Br  0  0  0  0  0  0  0  0  0  0  0  0
    9.6070   -0.3310    3.6060 C   0  0  0  0  0  3  0  0  0  0  0  0
    9.0510   -1.2260    2.6890 C   0  0  0  0  0  3  0  0  0  0  0  0
   11.2740   -2.3590   -0.1820 N   0  0  0  0  0  1  0  0  0  0  0  0
   10.2460   -2.9610    0.2320 C   0  0  0  0  0  2  0  0  0  0  0  0
    5.5770   -6.1360    2.1890 S   0  0  0  0  0  0  0  0  0  0  0  0
    4.2120   -4.9700    2.3940 C   0  0  0  0  0  2  0  0  0  0  0  0
    4.1230   -4.2730    3.7300 C   0  0  0  0  0  0  0  0  0  0  0  0
    3.2110   -3.2170    3.9050 C   0  0  0  0  0  3  0  0  0  0  0  0
    3.0890   -2.5680    5.1360 C   0  0  0  0  0  3  0  0  0  0  0  0
    3.8710   -2.9690    6.2180 C   0  0  0  0  0  3  0  0  0  0  0  0
    4.7720   -4.0280    6.0600 C   0  0  0  0  0  0  0  0  0  0  0  0
    4.8980   -4.6850    4.8270 C   0  0  0  0  0  3  0  0  0  0  0  0
    5.5890   -4.4590    7.2020 N   0  0  0  0  0  0  0  0  0  0  0  0
    5.2330   -5.4760    7.8140 O   0  0  0  0  0  0  0  0  0  0  0  0
    6.5860   -3.7810    7.4860 O   0  0  0  0  0  0  0  0  0  0  0  0
  1  2  2  0  0  0  0
  2  3  1  0  0  0  0
  2  9  1  0  0  0  0
  4 18  1  0  0  0  0
  4  3  2  0  0  0  0
  5  4  1  0  0  0  0
  6  5  1  0  0  0  0
  6  1  1  0  0  0  0
  7  6  2  0  0  0  0
  8  5  1  0  0  0  0
  9 10  1  0  0  0  0
 10 11  2  0  0  0  0
 12 11  1  0  0  0  0
 12 13  1  0  0  0  0
 14 12  2  0  0  0  0
 15  9  2  0  0  0  0
 15 14  1  0  0  0  0
 16 17  1  0  0  0  0
 17  1  1  0  0  0  0
 18 19  1  0  0  0  0
 19 20  1  0  0  0  0
 20 21  2  0  0  0  0
 20 25  1  0  0  0  0
 21 22  1  0  0  0  0
 22 23  2  0  0  0  0
 24 23  1  0  0  0  0
 24 26  1  0  0  0  0
 25 24  2  0  0  0  0
 26 28  2  0  0  0  0
 26 27  2  0  0  0  0
M  END
>  <minimizedAffinity>
-7.3390789

$$$$
