
 OpenBabel09122222393D

 28 30  0  0  0  0  0  0  0  0999 V2000
    5.7210   -5.9670    2.4740 C   0  0  0  0  0  0  0  0  0  0  0  0
    6.0010   -4.7180    2.8850 C   0  0  0  0  0  0  0  0  0  0  0  0
    7.0600   -3.9720    2.4100 N   0  0  0  0  0  0  0  0  0  0  0  0
    7.7830   -4.4880    1.4760 C   0  0  0  0  0  0  0  0  0  0  0  0
    7.5610   -5.7170    0.9440 N   0  0  0  0  0  0  0  0  0  0  0  0
    6.5890   -6.5420    1.4270 C   0  0  0  0  0  0  0  0  0  0  0  0
    6.4560   -7.6820    0.9980 O   0  0  0  0  0  0  0  0  0  0  0  0
    8.1310   -6.0710    0.1940 H   0  0  0  0  0  0  0  0  0  0  0  0
    5.1050   -4.0180    3.8300 C   0  0  0  0  0  0  0  0  0  0  0  0
    3.8450   -3.5470    3.4380 C   0  0  0  0  0  3  0  0  0  0  0  0
    3.0300   -2.8710    4.3520 C   0  0  0  0  0  3  0  0  0  0  0  0
    3.4690   -2.6730    5.6590 C   0  0  0  0  0  0  0  0  0  0  0  0
    2.3680   -1.7570    6.8920 Br  0  0  0  0  0  0  0  0  0  0  0  0
    4.7130   -3.1480    6.0670 C   0  0  0  0  0  3  0  0  0  0  0  0
    5.5270   -3.8230    5.1540 C   0  0  0  0  0  3  0  0  0  0  0  0
    3.5230   -7.4520    3.3110 N   0  0  0  0  0  1  0  0  0  0  0  0
    4.5190   -6.7790    2.9320 C   0  0  0  0  0  2  0  0  0  0  0  0
    9.0860   -3.5740    0.7900 S   0  0  0  0  0  0  0  0  0  0  0  0
    9.0620   -2.0120    1.6990 C   0  0  0  0  0  2  0  0  0  0  0  0
    9.5160   -0.7880    0.9410 C   0  0  0  0  0  0  0  0  0  0  0  0
    9.4840    0.4700    1.5660 C   0  0  0  0  0  3  0  0  0  0  0  0
    9.9200    1.6170    0.8970 C   0  0  0  0  0  3  0  0  0  0  0  0
   10.4040    1.5250   -0.4060 C   0  0  0  0  0  3  0  0  0  0  0  0
   10.4540    0.2750   -1.0340 C   0  0  0  0  0  0  0  0  0  0  0  0
   10.0190   -0.8810   -0.3680 C   0  0  0  0  0  3  0  0  0  0  0  0
   10.9730    0.1750   -2.4040 N   0  0  0  0  0  0  0  0  0  0  0  0
   11.8900    0.9420   -2.7300 O   0  0  0  0  0  0  0  0  0  0  0  0
   10.4650   -0.6710   -3.1530 O   0  0  0  0  0  0  0  0  0  0  0  0
  1  2  2  0  0  0  0
  1 17  1  0  0  0  0
  2  9  1  0  0  0  0
  3  2  1  0  0  0  0
  4  3  2  0  0  0  0
  5  6  1  0  0  0  0
  5  4  1  0  0  0  0
  6  1  1  0  0  0  0
  7  6  2  0  0  0  0
  8  5  1  0  0  0  0
  9 15  1  0  0  0  0
 10  9  2  0  0  0  0
 10 11  1  0  0  0  0
 11 12  2  0  0  0  0
 12 14  1  0  0  0  0
 12 13  1  0  0  0  0
 15 14  2  0  0  0  0
 17 16  1  0  0  0  0
 18  4  1  0  0  0  0
 18 19  1  0  0  0  0
 20 21  1  0  0  0  0
 20 19  1  0  0  0  0
 22 21  2  0  0  0  0
 23 22  1  0  0  0  0
 24 23  2  0  0  0  0
 24 25  1  0  0  0  0
 25 20  2  0  0  0  0
 26 24  1  0  0  0  0
 27 26  2  0  0  0  0
 28 26  2  0  0  0  0
M  END
>  <minimizedAffinity>
-7.53046274

$$$$
