
 OpenBabel09122222393D

 28 30  0  0  0  0  0  0  0  0999 V2000
    4.0500   -3.0550    5.7860 C   0  0  0  0  0  0  0  0  0  0  0  0
    5.1370   -3.8330    5.6420 C   0  0  0  0  0  0  0  0  0  0  0  0
    5.2130   -4.8920    4.7610 N   0  0  0  0  0  0  0  0  0  0  0  0
    4.2000   -5.1060    3.9940 C   0  0  0  0  0  0  0  0  0  0  0  0
    3.0710   -4.3520    4.0110 N   0  0  0  0  0  0  0  0  0  0  0  0
    2.8940   -3.3480    4.9160 C   0  0  0  0  0  0  0  0  0  0  0  0
    1.8360   -2.7320    4.9790 O   0  0  0  0  0  0  0  0  0  0  0  0
    2.3140   -4.5340    3.3740 H   0  0  0  0  0  0  0  0  0  0  0  0
    6.3840   -3.5270    6.3760 C   0  0  0  0  0  0  0  0  0  0  0  0
    6.5280   -3.8260    7.7370 C   0  0  0  0  0  3  0  0  0  0  0  0
    7.7140   -3.5060    8.4070 C   0  0  0  0  0  3  0  0  0  0  0  0
    8.7570   -2.8940    7.7160 C   0  0  0  0  0  0  0  0  0  0  0  0
   10.3570   -2.4580    8.6240 Br  0  0  0  0  0  0  0  0  0  0  0  0
    8.6330   -2.6030    6.3600 C   0  0  0  0  0  3  0  0  0  0  0  0
    7.4500   -2.9230    5.6910 C   0  0  0  0  0  3  0  0  0  0  0  0
    3.9040   -0.8340    7.4540 N   0  0  0  0  0  1  0  0  0  0  0  0
    3.9700   -1.8410    6.6970 C   0  0  0  0  0  2  0  0  0  0  0  0
    4.2610   -6.3790    2.8200 S   0  0  0  0  0  0  0  0  0  0  0  0
    6.0260   -6.6350    2.5320 C   0  0  0  0  0  2  0  0  0  0  0  0
    6.5790   -6.0950    1.2350 C   0  0  0  0  0  0  0  0  0  0  0  0
    5.8950   -6.3410    0.0320 C   0  0  0  0  0  3  0  0  0  0  0  0
    6.3700   -5.8350   -1.1810 C   0  0  0  0  0  3  0  0  0  0  0  0
    7.5330   -5.0670   -1.2120 C   0  0  0  0  0  3  0  0  0  0  0  0
    8.2150   -4.8050   -0.0180 C   0  0  0  0  0  0  0  0  0  0  0  0
    7.7420   -5.3080    1.2030 C   0  0  0  0  0  3  0  0  0  0  0  0
    9.4340   -3.9870   -0.0470 N   0  0  0  0  0  0  0  0  0  0  0  0
   10.1310   -4.0280   -1.0710 O   0  0  0  0  0  0  0  0  0  0  0  0
    9.6940   -3.3040    0.9530 O   0  0  0  0  0  0  0  0  0  0  0  0
  1 17  1  0  0  0  0
  2  1  2  0  0  0  0
  2  9  1  0  0  0  0
  3  2  1  0  0  0  0
  4  5  1  0  0  0  0
  4  3  2  0  0  0  0
  5  6  1  0  0  0  0
  6  7  2  0  0  0  0
  6  1  1  0  0  0  0
  8  5  1  0  0  0  0
  9 10  1  0  0  0  0
 10 11  2  0  0  0  0
 12 11  1  0  0  0  0
 12 13  1  0  0  0  0
 14 12  2  0  0  0  0
 15 14  1  0  0  0  0
 15  9  2  0  0  0  0
 17 16  1  0  0  0  0
 18  4  1  0  0  0  0
 19 18  1  0  0  0  0
 20 19  1  0  0  0  0
 21 20  2  0  0  0  0
 22 21  1  0  0  0  0
 23 22  2  0  0  0  0
 23 24  1  0  0  0  0
 24 25  2  0  0  0  0
 25 20  1  0  0  0  0
 26 24  1  0  0  0  0
 26 28  2  0  0  0  0
 27 26  2  0  0  0  0
M  END
>  <minimizedAffinity>
-7.53744793

$$$$
