
 OpenBabel09122222393D

 28 30  0  0  0  0  0  0  0  0999 V2000
    7.1050   -5.4740    0.3190 C   0  0  0  0  0  0  0  0  0  0  0  0
    6.9390   -5.1560    1.6150 C   0  0  0  0  0  0  0  0  0  0  0  0
    7.7360   -4.2580    2.2950 N   0  0  0  0  0  0  0  0  0  0  0  0
    8.6550   -3.6500    1.6270 C   0  0  0  0  0  0  0  0  0  0  0  0
    8.8790   -3.8470    0.3030 N   0  0  0  0  0  0  0  0  0  0  0  0
    8.1890   -4.7830   -0.4090 C   0  0  0  0  0  0  0  0  0  0  0  0
    8.4600   -5.0130   -1.5820 O   0  0  0  0  0  0  0  0  0  0  0  0
    9.5870   -3.3280   -0.1890 H   0  0  0  0  0  0  0  0  0  0  0  0
    5.7970   -5.6990    2.3820 C   0  0  0  0  0  0  0  0  0  0  0  0
    4.8300   -4.8610    2.9530 C   0  0  0  0  0  3  0  0  0  0  0  0
    3.7720   -5.4060    3.6890 C   0  0  0  0  0  3  0  0  0  0  0  0
    3.6770   -6.7870    3.8480 C   0  0  0  0  0  0  0  0  0  0  0  0
    2.2500   -7.5210    4.8470 Br  0  0  0  0  0  0  0  0  0  0  0  0
    4.6230   -7.6320    3.2750 C   0  0  0  0  0  3  0  0  0  0  0  0
    5.6790   -7.0880    2.5390 C   0  0  0  0  0  3  0  0  0  0  0  0
    5.4420   -7.1770   -1.1190 N   0  0  0  0  0  1  0  0  0  0  0  0
    6.1960   -6.4040   -0.4670 C   0  0  0  0  0  2  0  0  0  0  0  0
    9.6440   -2.4600    2.4080 S   0  0  0  0  0  0  0  0  0  0  0  0
    8.8210   -0.8920    2.0500 C   0  0  0  0  0  2  0  0  0  0  0  0
    9.5020    0.0070    1.0460 C   0  0  0  0  0  0  0  0  0  0  0  0
    9.7060    1.3640    1.3520 C   0  0  0  0  0  3  0  0  0  0  0  0
   10.3530    2.2140    0.4520 C   0  0  0  0  0  3  0  0  0  0  0  0
   10.8160    1.7220   -0.7670 C   0  0  0  0  0  3  0  0  0  0  0  0
   10.6310    0.3700   -1.0770 C   0  0  0  0  0  0  0  0  0  0  0  0
    9.9830   -0.4900   -0.1770 C   0  0  0  0  0  3  0  0  0  0  0  0
   11.1260   -0.1540   -2.3570 N   0  0  0  0  0  0  0  0  0  0  0  0
   12.3390   -0.0490   -2.5900 O   0  0  0  0  0  0  0  0  0  0  0  0
   10.3040   -0.6690   -3.1270 O   0  0  0  0  0  0  0  0  0  0  0  0
  1  2  2  0  0  0  0
  2  3  1  0  0  0  0
  2  9  1  0  0  0  0
  4  3  2  0  0  0  0
  4 18  1  0  0  0  0
  5  4  1  0  0  0  0
  6  5  1  0  0  0  0
  6  1  1  0  0  0  0
  7  6  2  0  0  0  0
  8  5  1  0  0  0  0
  9 15  2  0  0  0  0
  9 10  1  0  0  0  0
 10 11  2  0  0  0  0
 11 12  1  0  0  0  0
 12 13  1  0  0  0  0
 14 12  2  0  0  0  0
 15 14  1  0  0  0  0
 16 17  1  0  0  0  0
 17  1  1  0  0  0  0
 19 18  1  0  0  0  0
 20 21  1  0  0  0  0
 20 19  1  0  0  0  0
 22 21  2  0  0  0  0
 23 22  1  0  0  0  0
 24 23  2  0  0  0  0
 24 25  1  0  0  0  0
 25 20  2  0  0  0  0
 26 24  1  0  0  0  0
 27 26  2  0  0  0  0
 28 26  2  0  0  0  0
M  END
>  <minimizedAffinity>
-8.10575294

$$$$
