
 OpenBabel09122222393D

 28 30  0  0  0  0  0  0  0  0999 V2000
   11.0830    0.6280   -1.2580 C   0  0  0  0  0  0  0  0  0  0  0  0
   10.5260    1.1660   -0.1590 C   0  0  0  0  0  0  0  0  0  0  0  0
    9.7970    0.4450    0.7650 N   0  0  0  0  0  0  0  0  0  0  0  0
    9.6980   -0.8270    0.5870 C   0  0  0  0  0  0  0  0  0  0  0  0
   10.2650   -1.4880   -0.4540 N   0  0  0  0  0  0  0  0  0  0  0  0
   10.9220   -0.8280   -1.4490 C   0  0  0  0  0  0  0  0  0  0  0  0
   11.3540   -1.4260   -2.4280 O   0  0  0  0  0  0  0  0  0  0  0  0
   10.1910   -2.4880   -0.5390 H   0  0  0  0  0  0  0  0  0  0  0  0
   10.7500    2.5880    0.1790 C   0  0  0  0  0  0  0  0  0  0  0  0
    9.7420    3.5490    0.0240 C   0  0  0  0  0  3  0  0  0  0  0  0
    9.9930    4.8890    0.3350 C   0  0  0  0  0  3  0  0  0  0  0  0
   11.2480    5.2690    0.8070 C   0  0  0  0  0  0  0  0  0  0  0  0
   11.5860    7.0820    1.2220 Br  0  0  0  0  0  0  0  0  0  0  0  0
   12.2550    4.3230    0.9780 C   0  0  0  0  0  3  0  0  0  0  0  0
   12.0040    2.9840    0.6690 C   0  0  0  0  0  3  0  0  0  0  0  0
   12.6650    2.0200   -3.0720 N   0  0  0  0  0  1  0  0  0  0  0  0
   11.9470    1.3890   -2.2500 C   0  0  0  0  0  2  0  0  0  0  0  0
    8.8550   -1.7970    1.7500 S   0  0  0  0  0  0  0  0  0  0  0  0
    9.3250   -3.4930    1.3410 C   0  0  0  0  0  2  0  0  0  0  0  0
    8.2300   -4.3780    0.7960 C   0  0  0  0  0  0  0  0  0  0  0  0
    8.1550   -4.6220   -0.5870 C   0  0  0  0  0  3  0  0  0  0  0  0
    7.1670   -5.4550   -1.1180 C   0  0  0  0  0  3  0  0  0  0  0  0
    6.2410   -6.0670   -0.2750 C   0  0  0  0  0  3  0  0  0  0  0  0
    6.3130   -5.8430    1.1040 C   0  0  0  0  0  0  0  0  0  0  0  0
    7.3040   -5.0080    1.6440 C   0  0  0  0  0  3  0  0  0  0  0  0
    5.3450   -6.4950    1.9950 N   0  0  0  0  0  0  0  0  0  0  0  0
    4.3220   -6.9710    1.4830 O   0  0  0  0  0  0  0  0  0  0  0  0
    5.6070   -6.5300    3.2050 O   0  0  0  0  0  0  0  0  0  0  0  0
  1  2  2  0  0  0  0
  2  9  1  0  0  0  0
  2  3  1  0  0  0  0
  4  3  2  0  0  0  0
  4 18  1  0  0  0  0
  5  4  1  0  0  0  0
  6  1  1  0  0  0  0
  6  5  1  0  0  0  0
  7  6  2  0  0  0  0
  8  5  1  0  0  0  0
  9 15  1  0  0  0  0
 10  9  2  0  0  0  0
 10 11  1  0  0  0  0
 11 12  2  0  0  0  0
 12 14  1  0  0  0  0
 12 13  1  0  0  0  0
 15 14  2  0  0  0  0
 16 17  1  0  0  0  0
 17  1  1  0  0  0  0
 19 18  1  0  0  0  0
 20 19  1  0  0  0  0
 20 25  1  0  0  0  0
 21 20  2  0  0  0  0
 22 21  1  0  0  0  0
 22 23  2  0  0  0  0
 23 24  1  0  0  0  0
 24 25  2  0  0  0  0
 24 26  1  0  0  0  0
 26 28  2  0  0  0  0
 27 26  2  0  0  0  0
M  END
>  <minimizedAffinity>
-7.67649412

$$$$
