
 OpenBabel09132204463D

 31 33  0  0  0  0  0  0  0  0999 V2000
    7.0320   -5.5220    0.2250 C   0  0  0  0  0  0  0  0  0  0  0  0
    6.9290   -5.2400    1.5360 C   0  0  0  0  0  0  0  0  0  0  0  0
    7.7870   -4.4050    2.2170 N   0  0  0  0  0  0  0  0  0  0  0  0
    8.6960   -3.7920    1.5330 C   0  0  0  0  0  0  0  0  0  0  0  0
    8.8510   -3.9510    0.1930 N   0  0  0  0  0  0  0  0  0  0  0  0
    8.0940   -4.8310   -0.5270 C   0  0  0  0  0  0  0  0  0  0  0  0
    8.2910   -5.0130   -1.7220 O   0  0  0  0  0  0  0  0  0  0  0  0
    9.5550   -3.4540   -0.3250 H   0  0  0  0  0  0  0  0  0  0  0  0
    5.8170   -5.7980    2.3360 C   0  0  0  0  0  0  0  0  0  0  0  0
    4.7940   -4.9410    2.7680 C   0  0  0  0  0  3  0  0  0  0  0  0
    3.7340   -5.4360    3.5330 C   0  0  0  0  0  3  0  0  0  0  0  0
    3.6880   -6.7900    3.8630 C   0  0  0  0  0  0  0  0  0  0  0  0
    2.3790   -7.3930    4.8020 Cl  0  0  0  0  0  0  0  0  0  0  0  0
    4.6890   -7.6570    3.4350 C   0  0  0  0  0  3  0  0  0  0  0  0
    5.7500   -7.1640    2.6730 C   0  0  0  0  0  0  0  0  0  0  0  0
    6.9680   -8.2860    2.1690 Cl  0  0  0  0  0  0  0  0  0  0  0  0
    5.2940   -7.2240   -1.1230 N   0  0  0  0  0  1  0  0  0  0  0  0
    6.0820   -6.4520   -0.5120 C   0  0  0  0  0  2  0  0  0  0  0  0
    9.7310   -2.6740    2.3640 S   0  0  0  0  0  0  0  0  0  0  0  0
    8.7900   -1.1510    2.5670 C   0  0  0  0  0  2  0  0  0  0  0  0
    9.3620    0.0920    1.9310 C   0  0  0  0  0  0  0  0  0  0  0  0
    9.6720    1.1970    2.7360 C   0  0  0  0  0  3  0  0  0  0  0  0
   10.2300    2.3490    2.1790 C   0  0  0  0  0  3  0  0  0  0  0  0
   10.5020    2.4230    0.8120 C   0  0  0  0  0  0  0  0  0  0  0  0
   10.2200    1.3200    0.0060 C   0  0  0  0  0  3  0  0  0  0  0  0
    9.6630    0.1620    0.5630 C   0  0  0  0  0  3  0  0  0  0  0  0
   11.0460    3.6090    0.4100 O   0  0  0  0  0  0  0  0  0  0  0  0
   10.1820    4.7240    0.2800 C   0  0  0  0  0  0  0  0  0  0  0  0
    8.9910    4.3570   -0.2400 F   0  0  0  0  0  0  0  0  0  0  0  0
    9.9870    5.3310    1.4700 F   0  0  0  0  0  0  0  0  0  0  0  0
   10.7500    5.6170   -0.5600 F   0  0  0  0  0  0  0  0  0  0  0  0
  1  2  2  0  0  0  0
  2  3  1  0  0  0  0
  2  9  1  0  0  0  0
  4  3  2  0  0  0  0
  4 19  1  0  0  0  0
  5  4  1  0  0  0  0
  6  5  1  0  0  0  0
  6  1  1  0  0  0  0
  7  6  2  0  0  0  0
  8  5  1  0  0  0  0
  9 15  2  0  0  0  0
  9 10  1  0  0  0  0
 10 11  2  0  0  0  0
 11 12  1  0  0  0  0
 12 13  1  0  0  0  0
 14 12  2  0  0  0  0
 15 14  1  0  0  0  0
 16 15  1  0  0  0  0
 17 18  1  0  0  0  0
 18  1  1  0  0  0  0
 19 20  1  0  0  0  0
 21 20  1  0  0  0  0
 21 22  1  0  0  0  0
 23 22  2  0  0  0  0
 24 23  1  0  0  0  0
 25 26  1  0  0  0  0
 25 24  2  0  0  0  0
 26 21  2  0  0  0  0
 27 24  1  0  0  0  0
 28 27  1  0  0  0  0
 28 30  1  0  0  0  0
 29 28  1  0  0  0  0
 31 28  1  0  0  0  0
M  END
>  <minimizedAffinity>
-7.34963465

$$$$
