
 OpenBabel09132204463D

 31 33  0  0  0  0  0  0  0  0999 V2000
    4.1790   -6.4180    3.8030 C   0  0  0  0  0  0  0  0  0  0  0  0
    4.6520   -5.1630    3.7010 C   0  0  0  0  0  0  0  0  0  0  0  0
    5.7020   -4.7960    2.8890 N   0  0  0  0  0  0  0  0  0  0  0  0
    6.2070   -5.6990    2.1160 C   0  0  0  0  0  0  0  0  0  0  0  0
    5.7650   -6.9840    2.0870 N   0  0  0  0  0  0  0  0  0  0  0  0
    4.7900   -7.4360    2.9300 C   0  0  0  0  0  0  0  0  0  0  0  0
    4.4510   -8.6120    2.9390 O   0  0  0  0  0  0  0  0  0  0  0  0
    6.1610   -7.6700    1.4680 H   0  0  0  0  0  0  0  0  0  0  0  0
    4.0140   -4.0610    4.4530 C   0  0  0  0  0  0  0  0  0  0  0  0
    2.7490   -3.6070    4.0500 C   0  0  0  0  0  3  0  0  0  0  0  0
    2.1230   -2.5610    4.7330 C   0  0  0  0  0  3  0  0  0  0  0  0
    2.7550   -1.9700    5.8270 C   0  0  0  0  0  0  0  0  0  0  0  0
    1.9770   -0.6840    6.6660 Cl  0  0  0  0  0  0  0  0  0  0  0  0
    4.0050   -2.4120    6.2480 C   0  0  0  0  0  3  0  0  0  0  0  0
    4.6330   -3.4560    5.5640 C   0  0  0  0  0  0  0  0  0  0  0  0
    6.1880   -3.9670    6.1280 Cl  0  0  0  0  0  0  0  0  0  0  0  0
    2.0660   -7.1360    5.4620 N   0  0  0  0  0  1  0  0  0  0  0  0
    3.0240   -6.8110    4.7100 C   0  0  0  0  0  2  0  0  0  0  0  0
    7.4750   -5.2300    1.0280 S   0  0  0  0  0  0  0  0  0  0  0  0
    8.3840   -3.9010    1.8370 C   0  0  0  0  0  2  0  0  0  0  0  0
    9.1640   -2.9680    0.9440 C   0  0  0  0  0  0  0  0  0  0  0  0
    9.0910   -1.5850    1.1610 C   0  0  0  0  0  3  0  0  0  0  0  0
    9.8250   -0.7010    0.3690 C   0  0  0  0  0  3  0  0  0  0  0  0
   10.6550   -1.1730   -0.6490 C   0  0  0  0  0  0  0  0  0  0  0  0
   10.7540   -2.5480   -0.8570 C   0  0  0  0  0  3  0  0  0  0  0  0
   10.0210   -3.4380   -0.0610 C   0  0  0  0  0  3  0  0  0  0  0  0
   11.3110   -0.1940   -1.3400 O   0  0  0  0  0  0  0  0  0  0  0  0
   11.2560   -0.2340   -2.7550 C   0  0  0  0  0  0  0  0  0  0  0  0
   12.1300   -1.1370   -3.2500 F   0  0  0  0  0  0  0  0  0  0  0  0
   10.0110   -0.5260   -3.1860 F   0  0  0  0  0  0  0  0  0  0  0  0
   11.5930    0.9840   -3.2350 F   0  0  0  0  0  0  0  0  0  0  0  0
  1 18  1  0  0  0  0
  2  1  2  0  0  0  0
  2  9  1  0  0  0  0
  3  2  1  0  0  0  0
  4  3  2  0  0  0  0
  5  4  1  0  0  0  0
  5  6  1  0  0  0  0
  6  7  2  0  0  0  0
  6  1  1  0  0  0  0
  8  5  1  0  0  0  0
  9 15  1  0  0  0  0
 10  9  2  0  0  0  0
 10 11  1  0  0  0  0
 11 12  2  0  0  0  0
 12 14  1  0  0  0  0
 12 13  1  0  0  0  0
 15 16  1  0  0  0  0
 15 14  2  0  0  0  0
 18 17  1  0  0  0  0
 19 20  1  0  0  0  0
 19  4  1  0  0  0  0
 21 22  1  0  0  0  0
 21 20  1  0  0  0  0
 23 22  2  0  0  0  0
 24 23  1  0  0  0  0
 25 24  2  0  0  0  0
 25 26  1  0  0  0  0
 26 21  2  0  0  0  0
 27 24  1  0  0  0  0
 28 27  1  0  0  0  0
 29 28  1  0  0  0  0
 30 28  1  0  0  0  0
 31 28  1  0  0  0  0
M  END
>  <minimizedAffinity>
-8.20958233

$$$$
