
 OpenBabel09132204463D

 31 33  0  0  0  0  0  0  0  0999 V2000
    3.9080   -3.3360    5.6030 C   0  0  0  0  0  0  0  0  0  0  0  0
    4.7550   -4.3360    5.9060 C   0  0  0  0  0  0  0  0  0  0  0  0
    4.9450   -5.4530    5.1240 N   0  0  0  0  0  0  0  0  0  0  0  0
    4.3320   -5.5010    3.9880 C   0  0  0  0  0  0  0  0  0  0  0  0
    3.5020   -4.5190    3.5500 N   0  0  0  0  0  0  0  0  0  0  0  0
    3.2000   -3.4280    4.3150 C   0  0  0  0  0  0  0  0  0  0  0  0
    2.3970   -2.5860    3.9330 O   0  0  0  0  0  0  0  0  0  0  0  0
    3.0440   -4.5670    2.6550 H   0  0  0  0  0  0  0  0  0  0  0  0
    5.5940   -4.2610    7.1230 C   0  0  0  0  0  0  0  0  0  0  0  0
    5.1460   -4.8870    8.2960 C   0  0  0  0  0  3  0  0  0  0  0  0
    5.9110   -4.8270    9.4640 C   0  0  0  0  0  3  0  0  0  0  0  0
    7.1290   -4.1480    9.4630 C   0  0  0  0  0  0  0  0  0  0  0  0
    8.0670   -4.0800   10.9040 Cl  0  0  0  0  0  0  0  0  0  0  0  0
    7.5940   -3.5280    8.3070 C   0  0  0  0  0  3  0  0  0  0  0  0
    6.8290   -3.5850    7.1400 C   0  0  0  0  0  0  0  0  0  0  0  0
    7.4530   -2.7970    5.7300 Cl  0  0  0  0  0  0  0  0  0  0  0  0
    3.5320   -1.0960    7.2080 N   0  0  0  0  0  1  0  0  0  0  0  0
    3.7030   -2.1120    6.4800 C   0  0  0  0  0  2  0  0  0  0  0  0
    4.6260   -6.8650    2.9560 S   0  0  0  0  0  0  0  0  0  0  0  0
    4.6380   -6.2400    1.2660 C   0  0  0  0  0  2  0  0  0  0  0  0
    5.9650   -5.7710    0.7240 C   0  0  0  0  0  0  0  0  0  0  0  0
    6.1280   -5.6140   -0.6600 C   0  0  0  0  0  3  0  0  0  0  0  0
    7.3350   -5.1530   -1.1860 C   0  0  0  0  0  3  0  0  0  0  0  0
    8.4040   -4.8280   -0.3490 C   0  0  0  0  0  0  0  0  0  0  0  0
    8.2440   -4.9560    1.0300 C   0  0  0  0  0  3  0  0  0  0  0  0
    7.0320   -5.4150    1.5620 C   0  0  0  0  0  3  0  0  0  0  0  0
    9.5190   -4.3910   -1.0040 O   0  0  0  0  0  0  0  0  0  0  0  0
   10.2160   -3.2840   -0.4580 C   0  0  0  0  0  0  0  0  0  0  0  0
    9.3650   -2.4180    0.1330 F   0  0  0  0  0  0  0  0  0  0  0  0
   11.1450   -3.6850    0.4350 F   0  0  0  0  0  0  0  0  0  0  0  0
   10.8480   -2.6340   -1.4600 F   0  0  0  0  0  0  0  0  0  0  0  0
  1  2  2  0  0  0  0
  1 18  1  0  0  0  0
  2  9  1  0  0  0  0
  3  2  1  0  0  0  0
  4  3  2  0  0  0  0
  5  4  1  0  0  0  0
  5  6  1  0  0  0  0
  6  1  1  0  0  0  0
  7  6  2  0  0  0  0
  8  5  1  0  0  0  0
  9 15  2  0  0  0  0
  9 10  1  0  0  0  0
 10 11  2  0  0  0  0
 12 11  1  0  0  0  0
 12 13  1  0  0  0  0
 14 12  2  0  0  0  0
 15 14  1  0  0  0  0
 16 15  1  0  0  0  0
 18 17  1  0  0  0  0
 19  4  1  0  0  0  0
 20 19  1  0  0  0  0
 21 20  1  0  0  0  0
 21 26  1  0  0  0  0
 22 21  2  0  0  0  0
 23 22  1  0  0  0  0
 23 24  2  0  0  0  0
 24 25  1  0  0  0  0
 25 26  2  0  0  0  0
 27 28  1  0  0  0  0
 27 24  1  0  0  0  0
 28 29  1  0  0  0  0
 28 30  1  0  0  0  0
 31 28  1  0  0  0  0
M  END
>  <minimizedAffinity>
-8.09529209

$$$$
