
 OpenBabel09132204463D

 31 33  0  0  0  0  0  0  0  0999 V2000
    3.4990   -6.4470    4.8570 C   0  0  0  0  0  0  0  0  0  0  0  0
    3.7450   -5.2720    4.2500 C   0  0  0  0  0  0  0  0  0  0  0  0
    4.2920   -5.1510    2.9920 N   0  0  0  0  0  0  0  0  0  0  0  0
    4.5040   -6.2360    2.3230 C   0  0  0  0  0  0  0  0  0  0  0  0
    4.2330   -7.4740    2.8110 N   0  0  0  0  0  0  0  0  0  0  0  0
    3.7750   -7.6700    4.0830 C   0  0  0  0  0  0  0  0  0  0  0  0
    3.6000   -8.7960    4.5310 O   0  0  0  0  0  0  0  0  0  0  0  0
    4.3910   -8.3070    2.2700 H   0  0  0  0  0  0  0  0  0  0  0  0
    3.3820   -3.9990    4.9110 C   0  0  0  0  0  0  0  0  0  0  0  0
    2.1300   -3.4260    4.6420 C   0  0  0  0  0  3  0  0  0  0  0  0
    1.7620   -2.2200    5.2430 C   0  0  0  0  0  3  0  0  0  0  0  0
    2.6390   -1.5850    6.1210 C   0  0  0  0  0  0  0  0  0  0  0  0
    2.1790   -0.1010    6.8610 Cl  0  0  0  0  0  0  0  0  0  0  0  0
    3.8820   -2.1430    6.4080 C   0  0  0  0  0  3  0  0  0  0  0  0
    4.2520   -3.3470    5.8050 C   0  0  0  0  0  0  0  0  0  0  0  0
    5.8090   -3.9960    6.1950 Cl  0  0  0  0  0  0  0  0  0  0  0  0
    2.4050   -6.6640    7.4040 N   0  0  0  0  0  1  0  0  0  0  0  0
    2.9010   -6.5650    6.2490 C   0  0  0  0  0  2  0  0  0  0  0  0
    5.1170   -6.0940    0.7050 S   0  0  0  0  0  0  0  0  0  0  0  0
    6.9030   -6.3060    0.8100 C   0  0  0  0  0  2  0  0  0  0  0  0
    7.7300   -5.0520    0.9480 C   0  0  0  0  0  0  0  0  0  0  0  0
    7.6970   -4.3330    2.1510 C   0  0  0  0  0  3  0  0  0  0  0  0
    8.4740   -3.1860    2.3160 C   0  0  0  0  0  3  0  0  0  0  0  0
    9.3110   -2.7350    1.2930 C   0  0  0  0  0  0  0  0  0  0  0  0
    9.3700   -3.4570    0.1020 C   0  0  0  0  0  3  0  0  0  0  0  0
    8.5940   -4.6110   -0.0660 C   0  0  0  0  0  3  0  0  0  0  0  0
   10.0110   -1.6030    1.5970 O   0  0  0  0  0  0  0  0  0  0  0  0
    9.3810   -0.3540    1.3690 C   0  0  0  0  0  0  0  0  0  0  0  0
    8.0500   -0.4340    1.5850 F   0  0  0  0  0  0  0  0  0  0  0  0
    9.9090    0.6090    2.1530 F   0  0  0  0  0  0  0  0  0  0  0  0
    9.5750   -0.0010    0.0790 F   0  0  0  0  0  0  0  0  0  0  0  0
  1 18  1  0  0  0  0
  2  1  2  0  0  0  0
  2  9  1  0  0  0  0
  3  2  1  0  0  0  0
  4  5  1  0  0  0  0
  4  3  2  0  0  0  0
  5  6  1  0  0  0  0
  6  7  2  0  0  0  0
  6  1  1  0  0  0  0
  8  5  1  0  0  0  0
  9 15  1  0  0  0  0
 10  9  2  0  0  0  0
 10 11  1  0  0  0  0
 11 12  2  0  0  0  0
 12 14  1  0  0  0  0
 12 13  1  0  0  0  0
 15 16  1  0  0  0  0
 15 14  2  0  0  0  0
 18 17  1  0  0  0  0
 19 20  1  0  0  0  0
 19  4  1  0  0  0  0
 20 21  1  0  0  0  0
 21 22  1  0  0  0  0
 22 23  2  0  0  0  0
 24 27  1  0  0  0  0
 24 23  1  0  0  0  0
 25 24  2  0  0  0  0
 26 25  1  0  0  0  0
 26 21  2  0  0  0  0
 28 29  1  0  0  0  0
 28 27  1  0  0  0  0
 28 30  1  0  0  0  0
 31 28  1  0  0  0  0
M  END
>  <minimizedAffinity>
-7.43589783

$$$$
