
 OpenBabel09132204463D

 31 33  0  0  0  0  0  0  0  0999 V2000
    9.1760   -3.6200    0.8100 C   0  0  0  0  0  0  0  0  0  0  0  0
    8.6030   -3.4830    2.0190 C   0  0  0  0  0  0  0  0  0  0  0  0
    7.4700   -4.1560    2.4190 N   0  0  0  0  0  0  0  0  0  0  0  0
    6.9780   -5.0350    1.6100 C   0  0  0  0  0  0  0  0  0  0  0  0
    7.5120   -5.3030    0.3900 N   0  0  0  0  0  0  0  0  0  0  0  0
    8.5790   -4.6080   -0.1040 C   0  0  0  0  0  0  0  0  0  0  0  0
    9.0060   -4.8150   -1.2330 O   0  0  0  0  0  0  0  0  0  0  0  0
    7.1230   -6.0010   -0.2200 H   0  0  0  0  0  0  0  0  0  0  0  0
    9.2120   -2.6000    3.0390 C   0  0  0  0  0  0  0  0  0  0  0  0
    9.8040   -3.1790    4.1710 C   0  0  0  0  0  3  0  0  0  0  0  0
   10.3800   -2.3730    5.1570 C   0  0  0  0  0  3  0  0  0  0  0  0
   10.3710   -0.9860    5.0120 C   0  0  0  0  0  0  0  0  0  0  0  0
   11.0840    0.0010    6.2280 Cl  0  0  0  0  0  0  0  0  0  0  0  0
    9.7960   -0.3940    3.8920 C   0  0  0  0  0  3  0  0  0  0  0  0
    9.2190   -1.1980    2.9070 C   0  0  0  0  0  0  0  0  0  0  0  0
    8.5160   -0.4110    1.5350 Cl  0  0  0  0  0  0  0  0  0  0  0  0
   11.4570   -2.2370    0.0230 N   0  0  0  0  0  1  0  0  0  0  0  0
   10.4230   -2.8640    0.3800 C   0  0  0  0  0  2  0  0  0  0  0  0
    5.5990   -5.9490    2.1340 S   0  0  0  0  0  0  0  0  0  0  0  0
    4.2650   -4.7670    2.3940 C   0  0  0  0  0  2  0  0  0  0  0  0
    4.1390   -4.1760    3.7770 C   0  0  0  0  0  0  0  0  0  0  0  0
    3.1860   -3.1750    4.0150 C   0  0  0  0  0  3  0  0  0  0  0  0
    3.0290   -2.6320    5.2910 C   0  0  0  0  0  3  0  0  0  0  0  0
    3.8070   -3.0790    6.3600 C   0  0  0  0  0  0  0  0  0  0  0  0
    4.7400   -4.0910    6.1390 C   0  0  0  0  0  3  0  0  0  0  0  0
    4.8980   -4.6410    4.8610 C   0  0  0  0  0  3  0  0  0  0  0  0
    3.5420   -2.4580    7.5470 O   0  0  0  0  0  0  0  0  0  0  0  0
    4.1540   -1.2030    7.7880 C   0  0  0  0  0  0  0  0  0  0  0  0
    5.3270   -1.1000    7.1270 F   0  0  0  0  0  0  0  0  0  0  0  0
    3.3420   -0.1870    7.4270 F   0  0  0  0  0  0  0  0  0  0  0  0
    4.4060   -1.0910    9.1110 F   0  0  0  0  0  0  0  0  0  0  0  0
  1  2  2  0  0  0  0
  2  3  1  0  0  0  0
  2  9  1  0  0  0  0
  4 19  1  0  0  0  0
  4  3  2  0  0  0  0
  5  4  1  0  0  0  0
  6  5  1  0  0  0  0
  6  1  1  0  0  0  0
  7  6  2  0  0  0  0
  8  5  1  0  0  0  0
  9 10  1  0  0  0  0
 10 11  2  0  0  0  0
 12 11  1  0  0  0  0
 12 13  1  0  0  0  0
 14 12  2  0  0  0  0
 15  9  2  0  0  0  0
 15 14  1  0  0  0  0
 16 15  1  0  0  0  0
 17 18  1  0  0  0  0
 18  1  1  0  0  0  0
 19 20  1  0  0  0  0
 20 21  1  0  0  0  0
 21 22  2  0  0  0  0
 21 26  1  0  0  0  0
 22 23  1  0  0  0  0
 23 24  2  0  0  0  0
 24 27  1  0  0  0  0
 25 24  1  0  0  0  0
 26 25  2  0  0  0  0
 27 28  1  0  0  0  0
 28 31  1  0  0  0  0
 29 28  1  0  0  0  0
 30 28  1  0  0  0  0
M  END
>  <minimizedAffinity>
-7.56447649

$$$$
