
 OpenBabel09132204463D

 31 33  0  0  0  0  0  0  0  0999 V2000
    5.4260   -2.4280    7.1070 C   0  0  0  0  0  0  0  0  0  0  0  0
    5.4130   -3.3540    6.1320 C   0  0  0  0  0  0  0  0  0  0  0  0
    6.4270   -3.5270    5.2160 N   0  0  0  0  0  0  0  0  0  0  0  0
    7.4920   -2.8090    5.3570 C   0  0  0  0  0  0  0  0  0  0  0  0
    7.6420   -1.8880    6.3440 N   0  0  0  0  0  0  0  0  0  0  0  0
    6.6410   -1.6030    7.2290 C   0  0  0  0  0  0  0  0  0  0  0  0
    6.7660   -0.7220    8.0710 O   0  0  0  0  0  0  0  0  0  0  0  0
    8.4840   -1.3480    6.4470 H   0  0  0  0  0  0  0  0  0  0  0  0
    4.2840   -4.3020    6.0170 C   0  0  0  0  0  0  0  0  0  0  0  0
    4.2330   -5.4060    6.8820 C   0  0  0  0  0  3  0  0  0  0  0  0
    3.1850   -6.3250    6.7930 C   0  0  0  0  0  3  0  0  0  0  0  0
    2.1790   -6.1420    5.8450 C   0  0  0  0  0  0  0  0  0  0  0  0
    0.8880   -7.2760    5.7430 Cl  0  0  0  0  0  0  0  0  0  0  0  0
    2.2070   -5.0490    4.9850 C   0  0  0  0  0  3  0  0  0  0  0  0
    3.2560   -4.1310    5.0710 C   0  0  0  0  0  0  0  0  0  0  0  0
    3.2430   -2.7900    3.9760 Cl  0  0  0  0  0  0  0  0  0  0  0  0
    3.3590   -2.0890    8.9350 N   0  0  0  0  0  1  0  0  0  0  0  0
    4.2960   -2.2430    8.1060 C   0  0  0  0  0  2  0  0  0  0  0  0
    8.8100   -3.0750    4.2600 S   0  0  0  0  0  0  0  0  0  0  0  0
    9.1260   -1.5000    3.4420 C   0  0  0  0  0  2  0  0  0  0  0  0
    9.6150   -1.5610    2.0160 C   0  0  0  0  0  0  0  0  0  0  0  0
   10.2410   -2.7250    1.5510 C   0  0  0  0  0  3  0  0  0  0  0  0
   10.6770   -2.8200    0.2280 C   0  0  0  0  0  3  0  0  0  0  0  0
   10.4890   -1.7630   -0.6640 C   0  0  0  0  0  0  0  0  0  0  0  0
    9.8450   -0.6090   -0.2180 C   0  0  0  0  0  3  0  0  0  0  0  0
    9.4040   -0.5130    1.1080 C   0  0  0  0  0  3  0  0  0  0  0  0
   10.9640   -1.9970   -1.9220 O   0  0  0  0  0  0  0  0  0  0  0  0
   11.8050   -1.0160   -2.5050 C   0  0  0  0  0  0  0  0  0  0  0  0
   11.0940   -0.1610   -3.2720 F   0  0  0  0  0  0  0  0  0  0  0  0
   12.4750   -0.3250   -1.5590 F   0  0  0  0  0  0  0  0  0  0  0  0
   12.7100   -1.6360   -3.2950 F   0  0  0  0  0  0  0  0  0  0  0  0
  1  6  1  0  0  0  0
  1 18  1  0  0  0  0
  2  1  2  0  0  0  0
  3  4  2  0  0  0  0
  3  2  1  0  0  0  0
  4  5  1  0  0  0  0
  5  8  1  0  0  0  0
  5  6  1  0  0  0  0
  6  7  2  0  0  0  0
  9  2  1  0  0  0  0
  9 10  1  0  0  0  0
 11 10  2  0  0  0  0
 12 11  1  0  0  0  0
 13 12  1  0  0  0  0
 14 15  1  0  0  0  0
 14 12  2  0  0  0  0
 15  9  2  0  0  0  0
 16 15  1  0  0  0  0
 18 17  1  0  0  0  0
 19  4  1  0  0  0  0
 20 19  1  0  0  0  0
 21 20  1  0  0  0  0
 22 21  1  0  0  0  0
 23 22  2  0  0  0  0
 24 25  2  0  0  0  0
 24 23  1  0  0  0  0
 25 26  1  0  0  0  0
 26 21  2  0  0  0  0
 27 24  1  0  0  0  0
 28 27  1  0  0  0  0
 28 30  1  0  0  0  0
 29 28  1  0  0  0  0
 31 28  1  0  0  0  0
M  END
>  <minimizedAffinity>
-7.11346674

$$$$
