
 OpenBabel09132204463D

 31 33  0  0  0  0  0  0  0  0999 V2000
    6.8050   -1.7100    7.5550 C   0  0  0  0  0  0  0  0  0  0  0  0
    6.7480   -2.8890    6.9110 C   0  0  0  0  0  0  0  0  0  0  0  0
    7.5740   -3.2410    5.8660 N   0  0  0  0  0  0  0  0  0  0  0  0
    8.5150   -2.4170    5.5420 C   0  0  0  0  0  0  0  0  0  0  0  0
    8.7070   -1.2260    6.1670 N   0  0  0  0  0  0  0  0  0  0  0  0
    7.8700   -0.7770    7.1490 C   0  0  0  0  0  0  0  0  0  0  0  0
    8.0170    0.3290    7.6540 O   0  0  0  0  0  0  0  0  0  0  0  0
    9.4550   -0.6040    5.9100 H   0  0  0  0  0  0  0  0  0  0  0  0
    5.7870   -3.9290    7.3390 C   0  0  0  0  0  0  0  0  0  0  0  0
    6.1300   -4.7720    8.4070 C   0  0  0  0  0  3  0  0  0  0  0  0
    5.2470   -5.7700    8.8300 C   0  0  0  0  0  3  0  0  0  0  0  0
    4.0170   -5.9250    8.1930 C   0  0  0  0  0  0  0  0  0  0  0  0
    2.9340   -7.1540    8.7200 Cl  0  0  0  0  0  0  0  0  0  0  0  0
    3.6550   -5.0920    7.1380 C   0  0  0  0  0  3  0  0  0  0  0  0
    4.5370   -4.0960    6.7130 C   0  0  0  0  0  0  0  0  0  0  0  0
    4.0390   -3.0890    5.3960 Cl  0  0  0  0  0  0  0  0  0  0  0  0
    5.1160   -1.0200    9.6540 N   0  0  0  0  0  1  0  0  0  0  0  0
    5.8820   -1.3330    8.7020 C   0  0  0  0  0  2  0  0  0  0  0  0
    9.6140   -2.8830    4.2820 S   0  0  0  0  0  0  0  0  0  0  0  0
    8.7380   -2.6560    2.7240 C   0  0  0  0  0  2  0  0  0  0  0  0
    7.8770   -3.8020    2.2540 C   0  0  0  0  0  0  0  0  0  0  0  0
    6.6200   -4.0060    2.8410 C   0  0  0  0  0  3  0  0  0  0  0  0
    5.7900   -5.0400    2.4060 C   0  0  0  0  0  3  0  0  0  0  0  0
    6.1870   -5.8880    1.3700 C   0  0  0  0  0  0  0  0  0  0  0  0
    7.4240   -5.6790    0.7630 C   0  0  0  0  0  3  0  0  0  0  0  0
    8.2580   -4.6390    1.1950 C   0  0  0  0  0  3  0  0  0  0  0  0
    5.2740   -6.8520    1.0510 O   0  0  0  0  0  0  0  0  0  0  0  0
    4.5940   -6.7350   -0.1860 C   0  0  0  0  0  0  0  0  0  0  0  0
    3.4450   -7.4450   -0.1780 F   0  0  0  0  0  0  0  0  0  0  0  0
    4.3240   -5.4440   -0.4740 F   0  0  0  0  0  0  0  0  0  0  0  0
    5.3850   -7.2280   -1.1640 F   0  0  0  0  0  0  0  0  0  0  0  0
  1 18  1  0  0  0  0
  2  9  1  0  0  0  0
  2  1  2  0  0  0  0
  3  2  1  0  0  0  0
  4  3  2  0  0  0  0
  4  5  1  0  0  0  0
  5  6  1  0  0  0  0
  6  1  1  0  0  0  0
  6  7  2  0  0  0  0
  8  5  1  0  0  0  0
  9 10  1  0  0  0  0
 10 11  2  0  0  0  0
 12 13  1  0  0  0  0
 12 11  1  0  0  0  0
 14 12  2  0  0  0  0
 15 14  1  0  0  0  0
 15  9  2  0  0  0  0
 16 15  1  0  0  0  0
 18 17  1  0  0  0  0
 19  4  1  0  0  0  0
 20 19  1  0  0  0  0
 21 20  1  0  0  0  0
 21 22  1  0  0  0  0
 23 22  2  0  0  0  0
 24 23  1  0  0  0  0
 25 26  1  0  0  0  0
 25 24  2  0  0  0  0
 26 21  2  0  0  0  0
 27 24  1  0  0  0  0
 28 29  1  0  0  0  0
 28 27  1  0  0  0  0
 30 28  1  0  0  0  0
 31 28  1  0  0  0  0
M  END
>  <minimizedAffinity>
-7.07309151

$$$$
