
 OpenBabel09132204463D

 22 22  0  0  0  0  0  0  0  0999 V2000
    5.1310   -7.3480    2.1660 C   0  0  0  0  0  0  0  0  0  0  0  0
    3.9020   -7.8360    1.6930 C   0  0  0  0  0  3  0  0  0  0  0  0
    3.6710   -7.9900    0.3260 C   0  0  0  0  0  3  0  0  0  0  0  0
    4.6640   -7.6330   -0.5730 C   0  0  0  0  0  0  0  0  0  0  0  0
    5.8820   -7.1290   -0.1250 C   0  0  0  0  0  3  0  0  0  0  0  0
    6.1400   -6.9760    1.2520 C   0  0  0  0  0  0  0  0  0  0  0  0
    7.4810   -6.3920    1.6050 C   0  0  0  0  0  0  0  0  0  0  0  0
    8.2720   -7.0600    2.3300 O   0  0  0  0  0  0  0  0  0  0  0  0
    7.6000   -5.1580    1.0530 C   0  0  0  0  0  2  0  0  0  0  0  0
    8.7630   -4.2070    1.0900 C   0  0  0  0  0  0  0  0  0  0  0  0
    9.2750   -3.7400    2.1060 O   0  0  0  0  0  0  0  0  0  0  0  0
    9.2780   -3.6600   -0.2740 C   0  0  0  0  0  0  0  0  0  0  0  0
    9.5020   -2.4060   -0.3890 O   0  0  0  0  0  1  0  0  0  0  0  0
    9.4180   -4.5130   -1.2210 O   0  0  0  0  0  0  0  0  0  0  0  0
    4.4140   -7.7770   -1.9090 O   0  0  0  0  0  0  0  0  0  0  0  0
    5.2090   -7.4490   -2.3630 H   0  0  0  0  0  0  0  0  0  0  0  0
    5.1890   -7.2180    3.5340 O   0  0  0  0  0  0  0  0  0  0  0  0
    4.4910   -6.0660    4.0150 C   0  0  0  0  0  2  0  0  0  0  0  0
    5.4280   -4.8590    3.9620 C   0  0  0  0  0  2  0  0  0  0  0  0
    4.8500   -3.6470    3.2440 C   0  0  0  0  0  2  0  0  0  0  0  0
    2.2440   -3.0610    4.0180 N   0  0  0  0  0  1  0  0  0  0  0  0
    3.4260   -3.3270    3.6670 C   0  0  0  0  0  2  0  0  0  0  0  0
  1 17  1  0  0  0  0
  2  1  1  0  0  0  0
  3  2  2  0  0  0  0
  4  5  2  0  0  0  0
  4  3  1  0  0  0  0
  5  6  1  0  0  0  0
  6  7  1  0  0  0  0
  6  1  2  0  0  0  0
  7  8  2  0  0  0  0
  9 10  1  0  0  0  0
  9  7  1  0  0  0  0
 10 11  2  0  0  0  0
 12 10  1  0  0  0  0
 13 12  1  0  0  0  0
 14 12  2  0  0  0  0
 15  4  1  0  0  0  0
 16 15  1  0  0  0  0
 17 18  1  0  0  0  0
 19 18  1  0  0  0  0
 20 22  1  0  0  0  0
 20 19  1  0  0  0  0
 22 21  1  0  0  0  0
M  END
>  <minimizedAffinity>
-2.82830834

$$$$
