
 OpenBabel09132204463D

 22 22  0  0  0  0  0  0  0  0999 V2000
    8.6620   -3.8250    0.3110 C   0  0  0  0  0  0  0  0  0  0  0  0
    9.3960   -2.7030   -0.1060 C   0  0  0  0  0  3  0  0  0  0  0  0
    9.5690   -1.6060    0.7390 C   0  0  0  0  0  3  0  0  0  0  0  0
    8.9870   -1.6210    1.9970 C   0  0  0  0  0  0  0  0  0  0  0  0
    8.2390   -2.7160    2.4220 C   0  0  0  0  0  3  0  0  0  0  0  0
    8.0610   -3.8390    1.5890 C   0  0  0  0  0  0  0  0  0  0  0  0
    7.2070   -4.9410    2.1530 C   0  0  0  0  0  0  0  0  0  0  0  0
    7.5410   -6.1440    1.9520 O   0  0  0  0  0  0  0  0  0  0  0  0
    6.1460   -4.4060    2.8080 C   0  0  0  0  0  2  0  0  0  0  0  0
    5.0470   -5.0970    3.5650 C   0  0  0  0  0  0  0  0  0  0  0  0
    5.0810   -6.2530    3.9840 O   0  0  0  0  0  0  0  0  0  0  0  0
    3.6980   -4.3330    3.7150 C   0  0  0  0  0  0  0  0  0  0  0  0
    3.6910   -3.0620    3.5610 O   0  0  0  0  0  0  0  0  0  0  0  0
    2.6690   -5.0340    4.0200 O   0  0  0  0  0  1  0  0  0  0  0  0
    9.1560   -0.5320    2.8040 O   0  0  0  0  0  0  0  0  0  0  0  0
    8.6530   -0.7230    3.6140 H   0  0  0  0  0  0  0  0  0  0  0  0
    8.5490   -4.8060   -0.6460 O   0  0  0  0  0  0  0  0  0  0  0  0
    7.2370   -4.8860   -1.2100 C   0  0  0  0  0  2  0  0  0  0  0  0
    6.6970   -6.3020   -1.0100 C   0  0  0  0  0  2  0  0  0  0  0  0
    5.1910   -6.3760   -0.7960 C   0  0  0  0  0  2  0  0  0  0  0  0
    4.4670   -8.0800    1.2790 N   0  0  0  0  0  1  0  0  0  0  0  0
    4.7960   -7.3070    0.3380 C   0  0  0  0  0  2  0  0  0  0  0  0
  1  6  1  0  0  0  0
  2  1  2  0  0  0  0
  2  3  1  0  0  0  0
  3  4  2  0  0  0  0
  4  5  1  0  0  0  0
  4 15  1  0  0  0  0
  6  7  1  0  0  0  0
  6  5  2  0  0  0  0
  7  9  1  0  0  0  0
  8  7  2  0  0  0  0
  9 10  1  0  0  0  0
 10 12  1  0  0  0  0
 10 11  2  0  0  0  0
 12 14  1  0  0  0  0
 13 12  2  0  0  0  0
 15 16  1  0  0  0  0
 17  1  1  0  0  0  0
 18 19  1  0  0  0  0
 18 17  1  0  0  0  0
 19 20  1  0  0  0  0
 20 22  1  0  0  0  0
 22 21  1  0  0  0  0
M  END
>  <minimizedAffinity>
-4.99381828

$$$$
