
 OpenBabel09132204463D

 22 22  0  0  0  0  0  0  0  0999 V2000
    7.0770   -5.0610    1.8100 C   0  0  0  0  0  0  0  0  0  0  0  0
    6.8090   -5.9020    0.7170 C   0  0  0  0  0  3  0  0  0  0  0  0
    7.5310   -5.7840   -0.4710 C   0  0  0  0  0  3  0  0  0  0  0  0
    8.5100   -4.8080   -0.5750 C   0  0  0  0  0  0  0  0  0  0  0  0
    8.7780   -3.9520    0.4900 C   0  0  0  0  0  3  0  0  0  0  0  0
    8.0670   -4.0610    1.7030 C   0  0  0  0  0  0  0  0  0  0  0  0
    8.4290   -3.0570    2.7630 C   0  0  0  0  0  0  0  0  0  0  0  0
    8.3680   -3.3970    3.9800 O   0  0  0  0  0  0  0  0  0  0  0  0
    8.7660   -1.8790    2.1810 C   0  0  0  0  0  2  0  0  0  0  0  0
    9.2340   -0.6010    2.8180 C   0  0  0  0  0  0  0  0  0  0  0  0
    9.4730   -0.4410    4.0140 O   0  0  0  0  0  0  0  0  0  0  0  0
    9.2960    0.6640    1.9120 C   0  0  0  0  0  0  0  0  0  0  0  0
    9.5970    0.5210    0.6760 O   0  0  0  0  0  0  0  0  0  0  0  0
    9.0670    1.7910    2.4780 O   0  0  0  0  0  1  0  0  0  0  0  0
    9.1960   -4.6980   -1.7510 O   0  0  0  0  0  0  0  0  0  0  0  0
    9.8040   -3.9480   -1.6340 H   0  0  0  0  0  0  0  0  0  0  0  0
    6.2570   -5.2750    2.8930 O   0  0  0  0  0  0  0  0  0  0  0  0
    5.6930   -6.5890    2.9140 C   0  0  0  0  0  2  0  0  0  0  0  0
    4.2000   -6.4940    2.5990 C   0  0  0  0  0  2  0  0  0  0  0  0
    3.6470   -7.6760    1.8140 C   0  0  0  0  0  2  0  0  0  0  0  0
    4.2680   -7.5730   -0.8950 N   0  0  0  0  0  1  0  0  0  0  0  0
    3.9870   -7.6200    0.3340 C   0  0  0  0  0  2  0  0  0  0  0  0
  1 17  1  0  0  0  0
  2  1  2  0  0  0  0
  3  2  1  0  0  0  0
  4  3  2  0  0  0  0
  4  5  1  0  0  0  0
  5  6  2  0  0  0  0
  6  1  1  0  0  0  0
  6  7  1  0  0  0  0
  7  8  2  0  0  0  0
  9  7  1  0  0  0  0
  9 10  1  0  0  0  0
 10 11  2  0  0  0  0
 12 14  1  0  0  0  0
 12 10  1  0  0  0  0
 13 12  2  0  0  0  0
 15 16  1  0  0  0  0
 15  4  1  0  0  0  0
 17 18  1  0  0  0  0
 19 18  1  0  0  0  0
 20 19  1  0  0  0  0
 21 22  1  0  0  0  0
 22 20  1  0  0  0  0
M  END
>  <minimizedAffinity>
-4.61794472

$$$$
