
 OpenBabel09132204463D

 22 22  0  0  0  0  0  0  0  0999 V2000
    4.9370   -6.0360    3.3480 C   0  0  0  0  0  0  0  0  0  0  0  0
    3.6190   -6.0800    3.8340 C   0  0  0  0  0  3  0  0  0  0  0  0
    2.8850   -4.9080    4.0200 C   0  0  0  0  0  3  0  0  0  0  0  0
    3.4780   -3.6860    3.7420 C   0  0  0  0  0  0  0  0  0  0  0  0
    4.7890   -3.6200    3.2780 C   0  0  0  0  0  3  0  0  0  0  0  0
    5.5450   -4.7930    3.0730 C   0  0  0  0  0  0  0  0  0  0  0  0
    6.9580   -4.5850    2.6000 C   0  0  0  0  0  0  0  0  0  0  0  0
    7.5080   -5.4760    1.8910 O   0  0  0  0  0  0  0  0  0  0  0  0
    7.4250   -3.3990    3.0660 C   0  0  0  0  0  2  0  0  0  0  0  0
    8.7540   -2.7400    2.8300 C   0  0  0  0  0  0  0  0  0  0  0  0
    9.5740   -2.4470    3.6990 O   0  0  0  0  0  0  0  0  0  0  0  0
    9.0640   -2.2650    1.3790 C   0  0  0  0  0  0  0  0  0  0  0  0
    9.1460   -3.1410    0.4500 O   0  0  0  0  0  0  0  0  0  0  0  0
    9.2520   -1.0080    1.2120 O   0  0  0  0  0  1  0  0  0  0  0  0
    2.7490   -2.5490    3.9440 O   0  0  0  0  0  0  0  0  0  0  0  0
    3.3430   -1.8110    3.7240 H   0  0  0  0  0  0  0  0  0  0  0  0
    5.5380   -7.2700    3.2560 O   0  0  0  0  0  0  0  0  0  0  0  0
    5.6560   -7.7330    1.9080 C   0  0  0  0  0  2  0  0  0  0  0  0
    4.2570   -7.9870    1.3470 C   0  0  0  0  0  2  0  0  0  0  0  0
    4.0230   -7.4070   -0.0410 C   0  0  0  0  0  2  0  0  0  0  0  0
    6.1280   -5.8220   -0.9300 N   0  0  0  0  0  1  0  0  0  0  0  0
    5.1730   -6.5410   -0.5270 C   0  0  0  0  0  2  0  0  0  0  0  0
  1  2  1  0  0  0  0
  2  3  2  0  0  0  0
  4 15  1  0  0  0  0
  4  3  1  0  0  0  0
  5  4  2  0  0  0  0
  6  5  1  0  0  0  0
  6  1  2  0  0  0  0
  7  9  1  0  0  0  0
  7  6  1  0  0  0  0
  8  7  2  0  0  0  0
 10  9  1  0  0  0  0
 10 11  2  0  0  0  0
 12 10  1  0  0  0  0
 13 12  2  0  0  0  0
 14 12  1  0  0  0  0
 16 15  1  0  0  0  0
 17  1  1  0  0  0  0
 18 17  1  0  0  0  0
 19 18  1  0  0  0  0
 20 19  1  0  0  0  0
 21 22  1  0  0  0  0
 22 20  1  0  0  0  0
M  END
>  <minimizedAffinity>
-4.8050561

$$$$
