
 OpenBabel09132204463D

 22 22  0  0  0  0  0  0  0  0999 V2000
    8.4460   -2.9380    2.2780 C   0  0  0  0  0  0  0  0  0  0  0  0
    8.6550   -1.6390    2.7680 C   0  0  0  0  0  3  0  0  0  0  0  0
    9.0300   -0.6020    1.9130 C   0  0  0  0  0  3  0  0  0  0  0  0
    9.2200   -0.8710    0.5660 C   0  0  0  0  0  0  0  0  0  0  0  0
    9.0370   -2.1560    0.0630 C   0  0  0  0  0  3  0  0  0  0  0  0
    8.6470   -3.2150    0.9080 C   0  0  0  0  0  0  0  0  0  0  0  0
    8.5140   -4.5610    0.2490 C   0  0  0  0  0  0  0  0  0  0  0  0
    9.3220   -4.8800   -0.6700 O   0  0  0  0  0  0  0  0  0  0  0  0
    7.4640   -5.2310    0.7880 C   0  0  0  0  0  2  0  0  0  0  0  0
    6.9630   -6.6160    0.4890 C   0  0  0  0  0  0  0  0  0  0  0  0
    7.5460   -7.6640    0.7640 O   0  0  0  0  0  0  0  0  0  0  0  0
    5.6620   -6.7340   -0.3590 C   0  0  0  0  0  0  0  0  0  0  0  0
    4.8050   -5.7850   -0.3040 O   0  0  0  0  0  1  0  0  0  0  0  0
    5.5170   -7.8060   -1.0470 O   0  0  0  0  0  0  0  0  0  0  0  0
    9.6020    0.1540   -0.2530 O   0  0  0  0  0  0  0  0  0  0  0  0
    9.7100   -0.2400   -1.1360 H   0  0  0  0  0  0  0  0  0  0  0  0
    8.1180   -3.8550    3.2490 O   0  0  0  0  0  0  0  0  0  0  0  0
    6.9770   -3.4670    4.0190 C   0  0  0  0  0  2  0  0  0  0  0  0
    5.9020   -4.5460    3.8900 C   0  0  0  0  0  2  0  0  0  0  0  0
    4.7900   -4.2090    2.9050 C   0  0  0  0  0  2  0  0  0  0  0  0
    2.8100   -2.5970    4.0070 N   0  0  0  0  0  1  0  0  0  0  0  0
    3.7080   -3.3280    3.5070 C   0  0  0  0  0  2  0  0  0  0  0  0
  1  2  1  0  0  0  0
  1 17  1  0  0  0  0
  3  2  2  0  0  0  0
  4  3  1  0  0  0  0
  5  4  2  0  0  0  0
  5  6  1  0  0  0  0
  6  1  2  0  0  0  0
  7  9  1  0  0  0  0
  7  6  1  0  0  0  0
  8  7  2  0  0  0  0
 10 11  2  0  0  0  0
 10  9  1  0  0  0  0
 12 13  1  0  0  0  0
 12 10  1  0  0  0  0
 14 12  2  0  0  0  0
 15  4  1  0  0  0  0
 16 15  1  0  0  0  0
 17 18  1  0  0  0  0
 19 18  1  0  0  0  0
 20 22  1  0  0  0  0
 20 19  1  0  0  0  0
 22 21  1  0  0  0  0
M  END
>  <minimizedAffinity>
-4.20311499

$$$$
