
 OpenBabel09122223333D

 22 22  0  0  0  0  0  0  0  0999 V2000
    8.6620   -3.8250    0.3110 C   0  0  0  0  0  0  0  0  0  0  0  0
    9.3960   -2.7030   -0.1060 C   0  0  0  0  0  3  0  0  0  0  0  0
    9.5690   -1.6060    0.7390 C   0  0  0  0  0  3  0  0  0  0  0  0
    8.9870   -1.6210    1.9970 C   0  0  0  0  0  0  0  0  0  0  0  0
    8.2390   -2.7160    2.4220 C   0  0  0  0  0  3  0  0  0  0  0  0
    8.0610   -3.8390    1.5890 C   0  0  0  0  0  0  0  0  0  0  0  0
    7.2070   -4.9410    2.1530 C   0  0  0  0  0  0  0  0  0  0  0  0
    7.5410   -6.1440    1.9520 O   0  0  0  0  0  0  0  0  0  0  0  0
    6.1460   -4.4060    2.8080 C   0  0  0  0  0  2  0  0  0  0  0  0
    5.0470   -5.0970    3.5650 C   0  0  0  0  0  0  0  0  0  0  0  0
    5.0810   -6.2530    3.9840 O   0  0  0  0  0  0  0  0  0  0  0  0
    3.6980   -4.3330    3.7150 C   0  0  0  0  0  0  0  0  0  0  0  0
    3.6910   -3.0620    3.5610 O   0  0  0  0  0  0  0  0  0  0  0  0
    2.6690   -5.0340    4.0200 O   0  0  0  0  0  1  0  0  0  0  0  0
    9.1560   -0.5320    2.8040 O   0  0  0  0  0  0  0  0  0  0  0  0
    8.6530   -0.7230    3.6140 H   0  0  0  0  0  0  0  0  0  0  0  0
    8.5490   -4.8060   -0.6460 O   0  0  0  0  0  0  0  0  0  0  0  0
    7.2370   -4.8860   -1.2100 C   0  0  0  0  0  2  0  0  0  0  0  0
    6.6970   -6.3020   -1.0100 C   0  0  0  0  0  2  0  0  0  0  0  0
    5.1910   -6.3760   -0.7960 C   0  0  0  0  0  2  0  0  0  0  0  0
    4.4670   -8.0800    1.2790 N   0  0  0  0  0  1  0  0  0  0  0  0
    4.7960   -7.3070    0.3380 C   0  0  0  0  0  2  0  0  0  0  0  0
  1  6  1  0  0  0  0
  2  1  2  0  0  0  0
  2  3  1  0  0  0  0
  3  4  2  0  0  0  0
  4  5  1  0  0  0  0
  4 15  1  0  0  0  0
  6  7  1  0  0  0  0
  6  5  2  0  0  0  0
  7  9  1  0  0  0  0
  8  7  2  0  0  0  0
  9 10  1  0  0  0  0
 10 12  1  0  0  0  0
 10 11  2  0  0  0  0
 12 14  1  0  0  0  0
 13 12  2  0  0  0  0
 15 16  1  0  0  0  0
 17  1  1  0  0  0  0
 18 19  1  0  0  0  0
 18 17  1  0  0  0  0
 19 20  1  0  0  0  0
 20 22  1  0  0  0  0
 22 21  1  0  0  0  0
M  END
>  <minimizedAffinity>
-4.99381828

$$$$

 OpenBabel09122223333D

 22 22  0  0  0  0  0  0  0  0999 V2000
    4.9370   -6.0360    3.3480 C   0  0  0  0  0  0  0  0  0  0  0  0
    3.6190   -6.0800    3.8340 C   0  0  0  0  0  3  0  0  0  0  0  0
    2.8850   -4.9080    4.0200 C   0  0  0  0  0  3  0  0  0  0  0  0
    3.4780   -3.6860    3.7420 C   0  0  0  0  0  0  0  0  0  0  0  0
    4.7890   -3.6200    3.2780 C   0  0  0  0  0  3  0  0  0  0  0  0
    5.5450   -4.7930    3.0730 C   0  0  0  0  0  0  0  0  0  0  0  0
    6.9580   -4.5850    2.6000 C   0  0  0  0  0  0  0  0  0  0  0  0
    7.5080   -5.4760    1.8910 O   0  0  0  0  0  0  0  0  0  0  0  0
    7.4250   -3.3990    3.0660 C   0  0  0  0  0  2  0  0  0  0  0  0
    8.7540   -2.7400    2.8300 C   0  0  0  0  0  0  0  0  0  0  0  0
    9.5740   -2.4470    3.6990 O   0  0  0  0  0  0  0  0  0  0  0  0
    9.0640   -2.2650    1.3790 C   0  0  0  0  0  0  0  0  0  0  0  0
    9.1460   -3.1410    0.4500 O   0  0  0  0  0  0  0  0  0  0  0  0
    9.2520   -1.0080    1.2120 O   0  0  0  0  0  1  0  0  0  0  0  0
    2.7490   -2.5490    3.9440 O   0  0  0  0  0  0  0  0  0  0  0  0
    3.3430   -1.8110    3.7240 H   0  0  0  0  0  0  0  0  0  0  0  0
    5.5380   -7.2700    3.2560 O   0  0  0  0  0  0  0  0  0  0  0  0
    5.6560   -7.7330    1.9080 C   0  0  0  0  0  2  0  0  0  0  0  0
    4.2570   -7.9870    1.3470 C   0  0  0  0  0  2  0  0  0  0  0  0
    4.0230   -7.4070   -0.0410 C   0  0  0  0  0  2  0  0  0  0  0  0
    6.1280   -5.8220   -0.9300 N   0  0  0  0  0  1  0  0  0  0  0  0
    5.1730   -6.5410   -0.5270 C   0  0  0  0  0  2  0  0  0  0  0  0
  1  2  1  0  0  0  0
  2  3  2  0  0  0  0
  4 15  1  0  0  0  0
  4  3  1  0  0  0  0
  5  4  2  0  0  0  0
  6  5  1  0  0  0  0
  6  1  2  0  0  0  0
  7  9  1  0  0  0  0
  7  6  1  0  0  0  0
  8  7  2  0  0  0  0
 10  9  1  0  0  0  0
 10 11  2  0  0  0  0
 12 10  1  0  0  0  0
 13 12  2  0  0  0  0
 14 12  1  0  0  0  0
 16 15  1  0  0  0  0
 17  1  1  0  0  0  0
 18 17  1  0  0  0  0
 19 18  1  0  0  0  0
 20 19  1  0  0  0  0
 21 22  1  0  0  0  0
 22 20  1  0  0  0  0
M  END
>  <minimizedAffinity>
-4.8050561

$$$$

 OpenBabel09122223333D

 22 22  0  0  0  0  0  0  0  0999 V2000
    7.0770   -5.0610    1.8100 C   0  0  0  0  0  0  0  0  0  0  0  0
    6.8090   -5.9020    0.7170 C   0  0  0  0  0  3  0  0  0  0  0  0
    7.5310   -5.7840   -0.4710 C   0  0  0  0  0  3  0  0  0  0  0  0
    8.5100   -4.8080   -0.5750 C   0  0  0  0  0  0  0  0  0  0  0  0
    8.7780   -3.9520    0.4900 C   0  0  0  0  0  3  0  0  0  0  0  0
    8.0670   -4.0610    1.7030 C   0  0  0  0  0  0  0  0  0  0  0  0
    8.4290   -3.0570    2.7630 C   0  0  0  0  0  0  0  0  0  0  0  0
    8.3680   -3.3970    3.9800 O   0  0  0  0  0  0  0  0  0  0  0  0
    8.7660   -1.8790    2.1810 C   0  0  0  0  0  2  0  0  0  0  0  0
    9.2340   -0.6010    2.8180 C   0  0  0  0  0  0  0  0  0  0  0  0
    9.4730   -0.4410    4.0140 O   0  0  0  0  0  0  0  0  0  0  0  0
    9.2960    0.6640    1.9120 C   0  0  0  0  0  0  0  0  0  0  0  0
    9.5970    0.5210    0.6760 O   0  0  0  0  0  0  0  0  0  0  0  0
    9.0670    1.7910    2.4780 O   0  0  0  0  0  1  0  0  0  0  0  0
    9.1960   -4.6980   -1.7510 O   0  0  0  0  0  0  0  0  0  0  0  0
    9.8040   -3.9480   -1.6340 H   0  0  0  0  0  0  0  0  0  0  0  0
    6.2570   -5.2750    2.8930 O   0  0  0  0  0  0  0  0  0  0  0  0
    5.6930   -6.5890    2.9140 C   0  0  0  0  0  2  0  0  0  0  0  0
    4.2000   -6.4940    2.5990 C   0  0  0  0  0  2  0  0  0  0  0  0
    3.6470   -7.6760    1.8140 C   0  0  0  0  0  2  0  0  0  0  0  0
    4.2680   -7.5730   -0.8950 N   0  0  0  0  0  1  0  0  0  0  0  0
    3.9870   -7.6200    0.3340 C   0  0  0  0  0  2  0  0  0  0  0  0
  1 17  1  0  0  0  0
  2  1  2  0  0  0  0
  3  2  1  0  0  0  0
  4  3  2  0  0  0  0
  4  5  1  0  0  0  0
  5  6  2  0  0  0  0
  6  1  1  0  0  0  0
  6  7  1  0  0  0  0
  7  8  2  0  0  0  0
  9  7  1  0  0  0  0
  9 10  1  0  0  0  0
 10 11  2  0  0  0  0
 12 14  1  0  0  0  0
 12 10  1  0  0  0  0
 13 12  2  0  0  0  0
 15 16  1  0  0  0  0
 15  4  1  0  0  0  0
 17 18  1  0  0  0  0
 19 18  1  0  0  0  0
 20 19  1  0  0  0  0
 21 22  1  0  0  0  0
 22 20  1  0  0  0  0
M  END
>  <minimizedAffinity>
-4.61794472

$$$$

 OpenBabel09122223333D

 22 22  0  0  0  0  0  0  0  0999 V2000
    8.4460   -2.9380    2.2780 C   0  0  0  0  0  0  0  0  0  0  0  0
    8.6550   -1.6390    2.7680 C   0  0  0  0  0  3  0  0  0  0  0  0
    9.0300   -0.6020    1.9130 C   0  0  0  0  0  3  0  0  0  0  0  0
    9.2200   -0.8710    0.5660 C   0  0  0  0  0  0  0  0  0  0  0  0
    9.0370   -2.1560    0.0630 C   0  0  0  0  0  3  0  0  0  0  0  0
    8.6470   -3.2150    0.9080 C   0  0  0  0  0  0  0  0  0  0  0  0
    8.5140   -4.5610    0.2490 C   0  0  0  0  0  0  0  0  0  0  0  0
    9.3220   -4.8800   -0.6700 O   0  0  0  0  0  0  0  0  0  0  0  0
    7.4640   -5.2310    0.7880 C   0  0  0  0  0  2  0  0  0  0  0  0
    6.9630   -6.6160    0.4890 C   0  0  0  0  0  0  0  0  0  0  0  0
    7.5460   -7.6640    0.7640 O   0  0  0  0  0  0  0  0  0  0  0  0
    5.6620   -6.7340   -0.3590 C   0  0  0  0  0  0  0  0  0  0  0  0
    4.8050   -5.7850   -0.3040 O   0  0  0  0  0  1  0  0  0  0  0  0
    5.5170   -7.8060   -1.0470 O   0  0  0  0  0  0  0  0  0  0  0  0
    9.6020    0.1540   -0.2530 O   0  0  0  0  0  0  0  0  0  0  0  0
    9.7100   -0.2400   -1.1360 H   0  0  0  0  0  0  0  0  0  0  0  0
    8.1180   -3.8550    3.2490 O   0  0  0  0  0  0  0  0  0  0  0  0
    6.9770   -3.4670    4.0190 C   0  0  0  0  0  2  0  0  0  0  0  0
    5.9020   -4.5460    3.8900 C   0  0  0  0  0  2  0  0  0  0  0  0
    4.7900   -4.2090    2.9050 C   0  0  0  0  0  2  0  0  0  0  0  0
    2.8100   -2.5970    4.0070 N   0  0  0  0  0  1  0  0  0  0  0  0
    3.7080   -3.3280    3.5070 C   0  0  0  0  0  2  0  0  0  0  0  0
  1  2  1  0  0  0  0
  1 17  1  0  0  0  0
  3  2  2  0  0  0  0
  4  3  1  0  0  0  0
  5  4  2  0  0  0  0
  5  6  1  0  0  0  0
  6  1  2  0  0  0  0
  7  9  1  0  0  0  0
  7  6  1  0  0  0  0
  8  7  2  0  0  0  0
 10 11  2  0  0  0  0
 10  9  1  0  0  0  0
 12 13  1  0  0  0  0
 12 10  1  0  0  0  0
 14 12  2  0  0  0  0
 15  4  1  0  0  0  0
 16 15  1  0  0  0  0
 17 18  1  0  0  0  0
 19 18  1  0  0  0  0
 20 22  1  0  0  0  0
 20 19  1  0  0  0  0
 22 21  1  0  0  0  0
M  END
>  <minimizedAffinity>
-4.20311499

$$$$

 OpenBabel09122223333D

 22 22  0  0  0  0  0  0  0  0999 V2000
    8.1270   -4.5660    1.7190 C   0  0  0  0  0  0  0  0  0  0  0  0
    9.0150   -4.1370    0.7190 C   0  0  0  0  0  3  0  0  0  0  0  0
    8.7440   -4.3770   -0.6290 C   0  0  0  0  0  3  0  0  0  0  0  0
    7.5940   -5.0680   -0.9760 C   0  0  0  0  0  0  0  0  0  0  0  0
    6.7110   -5.5180    0.0020 C   0  0  0  0  0  3  0  0  0  0  0  0
    6.9600   -5.2770    1.3680 C   0  0  0  0  0  0  0  0  0  0  0  0
    5.9460   -5.8420    2.3260 C   0  0  0  0  0  0  0  0  0  0  0  0
    6.0570   -7.0440    2.7030 O   0  0  0  0  0  0  0  0  0  0  0  0
    5.0200   -4.8950    2.6210 C   0  0  0  0  0  2  0  0  0  0  0  0
    3.8450   -4.9710    3.5540 C   0  0  0  0  0  0  0  0  0  0  0  0
    3.3610   -6.0030    4.0170 O   0  0  0  0  0  0  0  0  0  0  0  0
    3.0900   -3.6420    3.8560 C   0  0  0  0  0  0  0  0  0  0  0  0
    3.7710   -2.5700    4.0100 O   0  0  0  0  0  1  0  0  0  0  0  0
    1.8140   -3.7150    3.9620 O   0  0  0  0  0  0  0  0  0  0  0  0
    7.3530   -5.3070   -2.3000 O   0  0  0  0  0  0  0  0  0  0  0  0
    6.5290   -5.8220   -2.3300 H   0  0  0  0  0  0  0  0  0  0  0  0
    8.5520   -4.2890    2.9980 O   0  0  0  0  0  0  0  0  0  0  0  0
    8.2120   -2.9660    3.4240 C   0  0  0  0  0  2  0  0  0  0  0  0
    9.4960   -2.1510    3.5810 C   0  0  0  0  0  2  0  0  0  0  0  0
    9.3940   -0.7170    3.0790 C   0  0  0  0  0  2  0  0  0  0  0  0
    9.5890   -0.5130    0.3120 N   0  0  0  0  0  1  0  0  0  0  0  0
    9.5000   -0.6050    1.5670 C   0  0  0  0  0  2  0  0  0  0  0  0
  1 17  1  0  0  0  0
  2  1  2  0  0  0  0
  3  2  1  0  0  0  0
  4  3  2  0  0  0  0
  4  5  1  0  0  0  0
  5  6  2  0  0  0  0
  6  1  1  0  0  0  0
  6  7  1  0  0  0  0
  7  9  1  0  0  0  0
  7  8  2  0  0  0  0
  9 10  1  0  0  0  0
 10 12  1  0  0  0  0
 10 11  2  0  0  0  0
 12 14  2  0  0  0  0
 12 13  1  0  0  0  0
 15  4  1  0  0  0  0
 16 15  1  0  0  0  0
 17 18  1  0  0  0  0
 18 19  1  0  0  0  0
 20 19  1  0  0  0  0
 21 22  1  0  0  0  0
 22 20  1  0  0  0  0
M  END
>  <minimizedAffinity>
-3.88762856

$$$$

 OpenBabel09122223333D

 22 22  0  0  0  0  0  0  0  0999 V2000
    8.0120   -3.7760    2.0800 C   0  0  0  0  0  0  0  0  0  0  0  0
    8.5390   -2.4780    1.9900 C   0  0  0  0  0  3  0  0  0  0  0  0
    9.0590   -1.9980    0.7870 C   0  0  0  0  0  3  0  0  0  0  0  0
    9.0720   -2.8270   -0.3240 C   0  0  0  0  0  0  0  0  0  0  0  0
    8.5710   -4.1240   -0.2500 C   0  0  0  0  0  3  0  0  0  0  0  0
    8.0320   -4.6250    0.9530 C   0  0  0  0  0  0  0  0  0  0  0  0
    7.5540   -6.0510    0.9090 C   0  0  0  0  0  0  0  0  0  0  0  0
    8.2000   -6.9370    1.5390 O   0  0  0  0  0  0  0  0  0  0  0  0
    6.4450   -6.1360    0.1330 C   0  0  0  0  0  2  0  0  0  0  0  0
    5.5890   -7.3320   -0.1780 C   0  0  0  0  0  0  0  0  0  0  0  0
    5.5240   -7.9040   -1.2650 O   0  0  0  0  0  0  0  0  0  0  0  0
    4.6030   -7.8070    0.9290 C   0  0  0  0  0  0  0  0  0  0  0  0
    3.3890   -8.0520    0.6070 O   0  0  0  0  0  0  0  0  0  0  0  0
    5.0700   -7.8960    2.1190 O   0  0  0  0  0  1  0  0  0  0  0  0
    9.5980   -2.3440   -1.4880 O   0  0  0  0  0  0  0  0  0  0  0  0
    9.5430   -3.0760   -2.1270 H   0  0  0  0  0  0  0  0  0  0  0  0
    7.5750   -4.1150    3.3400 O   0  0  0  0  0  0  0  0  0  0  0  0
    6.2120   -4.5480    3.3590 C   0  0  0  0  0  2  0  0  0  0  0  0
    5.3280   -3.3850    3.8080 C   0  0  0  0  0  2  0  0  0  0  0  0
    3.8370   -3.6110    3.5960 C   0  0  0  0  0  2  0  0  0  0  0  0
    3.0630   -6.2480    4.0190 N   0  0  0  0  0  1  0  0  0  0  0  0
    3.4140   -5.0520    3.8270 C   0  0  0  0  0  2  0  0  0  0  0  0
  1 17  1  0  0  0  0
  2  1  1  0  0  0  0
  3  2  2  0  0  0  0
  4  5  2  0  0  0  0
  4  3  1  0  0  0  0
  5  6  1  0  0  0  0
  6  1  2  0  0  0  0
  7  6  1  0  0  0  0
  7  8  2  0  0  0  0
  9  7  1  0  0  0  0
 10  9  1  0  0  0  0
 10 12  1  0  0  0  0
 11 10  2  0  0  0  0
 12 14  1  0  0  0  0
 13 12  2  0  0  0  0
 15  4  1  0  0  0  0
 16 15  1  0  0  0  0
 17 18  1  0  0  0  0
 18 19  1  0  0  0  0
 20 19  1  0  0  0  0
 20 22  1  0  0  0  0
 22 21  1  0  0  0  0
M  END
>  <minimizedAffinity>
-3.8114922

$$$$

 OpenBabel09122223333D

 22 22  0  0  0  0  0  0  0  0999 V2000
    5.0260   -5.7450    0.9320 C   0  0  0  0  0  0  0  0  0  0  0  0
    4.4450   -6.9970    0.6710 C   0  0  0  0  0  3  0  0  0  0  0  0
    3.9310   -7.7780    1.7070 C   0  0  0  0  0  3  0  0  0  0  0  0
    4.0170   -7.3160    3.0110 C   0  0  0  0  0  0  0  0  0  0  0  0
    4.6060   -6.0860    3.2930 C   0  0  0  0  0  3  0  0  0  0  0  0
    5.1230   -5.2760    2.2600 C   0  0  0  0  0  0  0  0  0  0  0  0
    5.7610   -3.9870    2.6990 C   0  0  0  0  0  0  0  0  0  0  0  0
    5.0250   -3.0430    3.1070 O   0  0  0  0  0  0  0  0  0  0  0  0
    7.1070   -4.0700    2.5520 C   0  0  0  0  0  2  0  0  0  0  0  0
    8.1670   -3.0610    2.8910 C   0  0  0  0  0  0  0  0  0  0  0  0
    8.6190   -2.8450    4.0150 O   0  0  0  0  0  0  0  0  0  0  0  0
    8.6390   -2.1140    1.7480 C   0  0  0  0  0  0  0  0  0  0  0  0
    9.2950   -2.6110    0.7690 O   0  0  0  0  0  0  0  0  0  0  0  0
    8.3600   -0.8690    1.8790 O   0  0  0  0  0  1  0  0  0  0  0  0
    3.5210   -8.1010    4.0130 O   0  0  0  0  0  0  0  0  0  0  0  0
    3.7040   -7.6210    4.8390 H   0  0  0  0  0  0  0  0  0  0  0  0
    5.5200   -5.1150   -0.1860 O   0  0  0  0  0  0  0  0  0  0  0  0
    6.4190   -5.9360   -0.9370 C   0  0  0  0  0  2  0  0  0  0  0  0
    7.7880   -5.2570   -0.9850 C   0  0  0  0  0  2  0  0  0  0  0  0
    8.6890   -5.5750    0.2010 C   0  0  0  0  0  2  0  0  0  0  0  0
    7.8930   -7.8440    1.5970 N   0  0  0  0  0  1  0  0  0  0  0  0
    8.2540   -6.8150    0.9640 C   0  0  0  0  0  2  0  0  0  0  0  0
  1  6  1  0  0  0  0
  2  1  2  0  0  0  0
  2  3  1  0  0  0  0
  3  4  2  0  0  0  0
  4  5  1  0  0  0  0
  4 15  1  0  0  0  0
  6  7  1  0  0  0  0
  6  5  2  0  0  0  0
  7  8  2  0  0  0  0
  9  7  1  0  0  0  0
  9 10  1  0  0  0  0
 10 11  2  0  0  0  0
 12 14  1  0  0  0  0
 12 10  1  0  0  0  0
 13 12  2  0  0  0  0
 15 16  1  0  0  0  0
 17  1  1  0  0  0  0
 18 17  1  0  0  0  0
 19 18  1  0  0  0  0
 19 20  1  0  0  0  0
 20 22  1  0  0  0  0
 22 21  1  0  0  0  0
M  END
>  <minimizedAffinity>
-3.69846725

$$$$

 OpenBabel09122223333D

 22 22  0  0  0  0  0  0  0  0999 V2000
    8.1180   -4.3720    2.0030 C   0  0  0  0  0  0  0  0  0  0  0  0
    8.9140   -3.3490    1.4630 C   0  0  0  0  0  3  0  0  0  0  0  0
    9.3150   -3.3840    0.1270 C   0  0  0  0  0  3  0  0  0  0  0  0
    8.9390   -4.4570   -0.6660 C   0  0  0  0  0  0  0  0  0  0  0  0
    8.1660   -5.4910   -0.1440 C   0  0  0  0  0  3  0  0  0  0  0  0
    7.7410   -5.4700    1.2000 C   0  0  0  0  0  0  0  0  0  0  0  0
    6.9380   -6.6600    1.6500 C   0  0  0  0  0  0  0  0  0  0  0  0
    7.5430   -7.6790    2.0920 O   0  0  0  0  0  0  0  0  0  0  0  0
    5.6160   -6.4130    1.4710 C   0  0  0  0  0  2  0  0  0  0  0  0
    4.4320   -7.2760    1.8060 C   0  0  0  0  0  0  0  0  0  0  0  0
    3.8020   -7.9700    1.0090 O   0  0  0  0  0  0  0  0  0  0  0  0
    3.8710   -7.1820    3.2560 C   0  0  0  0  0  0  0  0  0  0  0  0
    2.9380   -7.9830    3.6070 O   0  0  0  0  0  0  0  0  0  0  0  0
    4.3690   -6.2710    4.0080 O   0  0  0  0  0  1  0  0  0  0  0  0
    9.3540   -4.4810   -1.9670 O   0  0  0  0  0  0  0  0  0  0  0  0
    9.0170   -5.3150   -2.3360 H   0  0  0  0  0  0  0  0  0  0  0  0
    7.8390   -4.2140    3.3410 O   0  0  0  0  0  0  0  0  0  0  0  0
    7.8820   -2.8470    3.7620 C   0  0  0  0  0  2  0  0  0  0  0  0
    9.3420   -2.4200    3.9080 C   0  0  0  0  0  2  0  0  0  0  0  0
    9.5540   -0.9120    3.9500 C   0  0  0  0  0  2  0  0  0  0  0  0
    9.3240    0.2910    1.4540 N   0  0  0  0  0  1  0  0  0  0  0  0
    9.4280   -0.2550    2.5860 C   0  0  0  0  0  2  0  0  0  0  0  0
  1 17  1  0  0  0  0
  2  1  1  0  0  0  0
  3  2  2  0  0  0  0
  4  5  2  0  0  0  0
  4  3  1  0  0  0  0
  5  6  1  0  0  0  0
  6  7  1  0  0  0  0
  6  1  2  0  0  0  0
  7  8  2  0  0  0  0
  9  7  1  0  0  0  0
  9 10  1  0  0  0  0
 10 12  1  0  0  0  0
 11 10  2  0  0  0  0
 12 13  2  0  0  0  0
 12 14  1  0  0  0  0
 15  4  1  0  0  0  0
 16 15  1  0  0  0  0
 17 18  1  0  0  0  0
 18 19  1  0  0  0  0
 19 20  1  0  0  0  0
 21 22  1  0  0  0  0
 22 20  1  0  0  0  0
M  END
>  <minimizedAffinity>
-3.18389773

$$$$

 OpenBabel09122223333D

 22 22  0  0  0  0  0  0  0  0999 V2000
    5.5160   -3.7870    3.5390 C   0  0  0  0  0  0  0  0  0  0  0  0
    4.9240   -2.5550    3.8610 C   0  0  0  0  0  3  0  0  0  0  0  0
    3.5420   -2.4440    4.0190 C   0  0  0  0  0  3  0  0  0  0  0  0
    2.7470   -3.5640    3.8330 C   0  0  0  0  0  0  0  0  0  0  0  0
    3.3130   -4.7910    3.4950 C   0  0  0  0  0  3  0  0  0  0  0  0
    4.7080   -4.9270    3.3410 C   0  0  0  0  0  0  0  0  0  0  0  0
    5.1900   -6.2960    2.9440 C   0  0  0  0  0  0  0  0  0  0  0  0
    5.2060   -7.2180    3.8090 O   0  0  0  0  0  0  0  0  0  0  0  0
    5.5630   -6.2880    1.6390 C   0  0  0  0  0  2  0  0  0  0  0  0
    6.0680   -7.4160    0.7860 C   0  0  0  0  0  0  0  0  0  0  0  0
    7.1080   -8.0460    0.9730 O   0  0  0  0  0  0  0  0  0  0  0  0
    5.2800   -7.7290   -0.5200 C   0  0  0  0  0  0  0  0  0  0  0  0
    5.9330   -8.0790   -1.5630 O   0  0  0  0  0  0  0  0  0  0  0  0
    4.0070   -7.5840   -0.4740 O   0  0  0  0  0  1  0  0  0  0  0  0
    1.3950   -3.4330    3.9780 O   0  0  0  0  0  0  0  0  0  0  0  0
    1.0220   -4.3090    3.7790 H   0  0  0  0  0  0  0  0  0  0  0  0
    6.8810   -3.7250    3.3800 O   0  0  0  0  0  0  0  0  0  0  0  0
    7.2710   -3.2110    2.1030 C   0  0  0  0  0  2  0  0  0  0  0  0
    8.7950   -3.2450    1.9990 C   0  0  0  0  0  2  0  0  0  0  0  0
    9.3370   -2.9460    0.6080 C   0  0  0  0  0  2  0  0  0  0  0  0
    8.6570   -4.8830   -1.2680 N   0  0  0  0  0  1  0  0  0  0  0  0
    8.9650   -4.0050   -0.4170 C   0  0  0  0  0  2  0  0  0  0  0  0
  1  2  1  0  0  0  0
  2  3  2  0  0  0  0
  4 15  1  0  0  0  0
  4  3  1  0  0  0  0
  5  4  2  0  0  0  0
  6  5  1  0  0  0  0
  6  1  2  0  0  0  0
  7  6  1  0  0  0  0
  7  8  2  0  0  0  0
  9  7  1  0  0  0  0
 10 11  2  0  0  0  0
 10  9  1  0  0  0  0
 12 14  1  0  0  0  0
 12 10  1  0  0  0  0
 13 12  2  0  0  0  0
 16 15  1  0  0  0  0
 17  1  1  0  0  0  0
 18 17  1  0  0  0  0
 19 18  1  0  0  0  0
 20 19  1  0  0  0  0
 21 22  1  0  0  0  0
 22 20  1  0  0  0  0
M  END
>  <minimizedAffinity>
-2.90131545

$$$$

 OpenBabel09122223333D

 22 22  0  0  0  0  0  0  0  0999 V2000
    5.1310   -7.3480    2.1660 C   0  0  0  0  0  0  0  0  0  0  0  0
    3.9020   -7.8360    1.6930 C   0  0  0  0  0  3  0  0  0  0  0  0
    3.6710   -7.9900    0.3260 C   0  0  0  0  0  3  0  0  0  0  0  0
    4.6640   -7.6330   -0.5730 C   0  0  0  0  0  0  0  0  0  0  0  0
    5.8820   -7.1290   -0.1250 C   0  0  0  0  0  3  0  0  0  0  0  0
    6.1400   -6.9760    1.2520 C   0  0  0  0  0  0  0  0  0  0  0  0
    7.4810   -6.3920    1.6050 C   0  0  0  0  0  0  0  0  0  0  0  0
    8.2720   -7.0600    2.3300 O   0  0  0  0  0  0  0  0  0  0  0  0
    7.6000   -5.1580    1.0530 C   0  0  0  0  0  2  0  0  0  0  0  0
    8.7630   -4.2070    1.0900 C   0  0  0  0  0  0  0  0  0  0  0  0
    9.2750   -3.7400    2.1060 O   0  0  0  0  0  0  0  0  0  0  0  0
    9.2780   -3.6600   -0.2740 C   0  0  0  0  0  0  0  0  0  0  0  0
    9.5020   -2.4060   -0.3890 O   0  0  0  0  0  1  0  0  0  0  0  0
    9.4180   -4.5130   -1.2210 O   0  0  0  0  0  0  0  0  0  0  0  0
    4.4140   -7.7770   -1.9090 O   0  0  0  0  0  0  0  0  0  0  0  0
    5.2090   -7.4490   -2.3630 H   0  0  0  0  0  0  0  0  0  0  0  0
    5.1890   -7.2180    3.5340 O   0  0  0  0  0  0  0  0  0  0  0  0
    4.4910   -6.0660    4.0150 C   0  0  0  0  0  2  0  0  0  0  0  0
    5.4280   -4.8590    3.9620 C   0  0  0  0  0  2  0  0  0  0  0  0
    4.8500   -3.6470    3.2440 C   0  0  0  0  0  2  0  0  0  0  0  0
    2.2440   -3.0610    4.0180 N   0  0  0  0  0  1  0  0  0  0  0  0
    3.4260   -3.3270    3.6670 C   0  0  0  0  0  2  0  0  0  0  0  0
  1 17  1  0  0  0  0
  2  1  1  0  0  0  0
  3  2  2  0  0  0  0
  4  5  2  0  0  0  0
  4  3  1  0  0  0  0
  5  6  1  0  0  0  0
  6  7  1  0  0  0  0
  6  1  2  0  0  0  0
  7  8  2  0  0  0  0
  9 10  1  0  0  0  0
  9  7  1  0  0  0  0
 10 11  2  0  0  0  0
 12 10  1  0  0  0  0
 13 12  1  0  0  0  0
 14 12  2  0  0  0  0
 15  4  1  0  0  0  0
 16 15  1  0  0  0  0
 17 18  1  0  0  0  0
 19 18  1  0  0  0  0
 20 22  1  0  0  0  0
 20 19  1  0  0  0  0
 22 21  1  0  0  0  0
M  END
>  <minimizedAffinity>
-2.82830834

$$$$
