
 OpenBabel09132204463D

 22 22  0  0  0  0  0  0  0  0999 V2000
    8.0120   -3.7760    2.0800 C   0  0  0  0  0  0  0  0  0  0  0  0
    8.5390   -2.4780    1.9900 C   0  0  0  0  0  3  0  0  0  0  0  0
    9.0590   -1.9980    0.7870 C   0  0  0  0  0  3  0  0  0  0  0  0
    9.0720   -2.8270   -0.3240 C   0  0  0  0  0  0  0  0  0  0  0  0
    8.5710   -4.1240   -0.2500 C   0  0  0  0  0  3  0  0  0  0  0  0
    8.0320   -4.6250    0.9530 C   0  0  0  0  0  0  0  0  0  0  0  0
    7.5540   -6.0510    0.9090 C   0  0  0  0  0  0  0  0  0  0  0  0
    8.2000   -6.9370    1.5390 O   0  0  0  0  0  0  0  0  0  0  0  0
    6.4450   -6.1360    0.1330 C   0  0  0  0  0  2  0  0  0  0  0  0
    5.5890   -7.3320   -0.1780 C   0  0  0  0  0  0  0  0  0  0  0  0
    5.5240   -7.9040   -1.2650 O   0  0  0  0  0  0  0  0  0  0  0  0
    4.6030   -7.8070    0.9290 C   0  0  0  0  0  0  0  0  0  0  0  0
    3.3890   -8.0520    0.6070 O   0  0  0  0  0  0  0  0  0  0  0  0
    5.0700   -7.8960    2.1190 O   0  0  0  0  0  1  0  0  0  0  0  0
    9.5980   -2.3440   -1.4880 O   0  0  0  0  0  0  0  0  0  0  0  0
    9.5430   -3.0760   -2.1270 H   0  0  0  0  0  0  0  0  0  0  0  0
    7.5750   -4.1150    3.3400 O   0  0  0  0  0  0  0  0  0  0  0  0
    6.2120   -4.5480    3.3590 C   0  0  0  0  0  2  0  0  0  0  0  0
    5.3280   -3.3850    3.8080 C   0  0  0  0  0  2  0  0  0  0  0  0
    3.8370   -3.6110    3.5960 C   0  0  0  0  0  2  0  0  0  0  0  0
    3.0630   -6.2480    4.0190 N   0  0  0  0  0  1  0  0  0  0  0  0
    3.4140   -5.0520    3.8270 C   0  0  0  0  0  2  0  0  0  0  0  0
  1 17  1  0  0  0  0
  2  1  1  0  0  0  0
  3  2  2  0  0  0  0
  4  5  2  0  0  0  0
  4  3  1  0  0  0  0
  5  6  1  0  0  0  0
  6  1  2  0  0  0  0
  7  6  1  0  0  0  0
  7  8  2  0  0  0  0
  9  7  1  0  0  0  0
 10  9  1  0  0  0  0
 10 12  1  0  0  0  0
 11 10  2  0  0  0  0
 12 14  1  0  0  0  0
 13 12  2  0  0  0  0
 15  4  1  0  0  0  0
 16 15  1  0  0  0  0
 17 18  1  0  0  0  0
 18 19  1  0  0  0  0
 20 19  1  0  0  0  0
 20 22  1  0  0  0  0
 22 21  1  0  0  0  0
M  END
>  <minimizedAffinity>
-3.8114922

$$$$
