
 OpenBabel09132204463D

 22 22  0  0  0  0  0  0  0  0999 V2000
    5.0260   -5.7450    0.9320 C   0  0  0  0  0  0  0  0  0  0  0  0
    4.4450   -6.9970    0.6710 C   0  0  0  0  0  3  0  0  0  0  0  0
    3.9310   -7.7780    1.7070 C   0  0  0  0  0  3  0  0  0  0  0  0
    4.0170   -7.3160    3.0110 C   0  0  0  0  0  0  0  0  0  0  0  0
    4.6060   -6.0860    3.2930 C   0  0  0  0  0  3  0  0  0  0  0  0
    5.1230   -5.2760    2.2600 C   0  0  0  0  0  0  0  0  0  0  0  0
    5.7610   -3.9870    2.6990 C   0  0  0  0  0  0  0  0  0  0  0  0
    5.0250   -3.0430    3.1070 O   0  0  0  0  0  0  0  0  0  0  0  0
    7.1070   -4.0700    2.5520 C   0  0  0  0  0  2  0  0  0  0  0  0
    8.1670   -3.0610    2.8910 C   0  0  0  0  0  0  0  0  0  0  0  0
    8.6190   -2.8450    4.0150 O   0  0  0  0  0  0  0  0  0  0  0  0
    8.6390   -2.1140    1.7480 C   0  0  0  0  0  0  0  0  0  0  0  0
    9.2950   -2.6110    0.7690 O   0  0  0  0  0  0  0  0  0  0  0  0
    8.3600   -0.8690    1.8790 O   0  0  0  0  0  1  0  0  0  0  0  0
    3.5210   -8.1010    4.0130 O   0  0  0  0  0  0  0  0  0  0  0  0
    3.7040   -7.6210    4.8390 H   0  0  0  0  0  0  0  0  0  0  0  0
    5.5200   -5.1150   -0.1860 O   0  0  0  0  0  0  0  0  0  0  0  0
    6.4190   -5.9360   -0.9370 C   0  0  0  0  0  2  0  0  0  0  0  0
    7.7880   -5.2570   -0.9850 C   0  0  0  0  0  2  0  0  0  0  0  0
    8.6890   -5.5750    0.2010 C   0  0  0  0  0  2  0  0  0  0  0  0
    7.8930   -7.8440    1.5970 N   0  0  0  0  0  1  0  0  0  0  0  0
    8.2540   -6.8150    0.9640 C   0  0  0  0  0  2  0  0  0  0  0  0
  1  6  1  0  0  0  0
  2  1  2  0  0  0  0
  2  3  1  0  0  0  0
  3  4  2  0  0  0  0
  4  5  1  0  0  0  0
  4 15  1  0  0  0  0
  6  7  1  0  0  0  0
  6  5  2  0  0  0  0
  7  8  2  0  0  0  0
  9  7  1  0  0  0  0
  9 10  1  0  0  0  0
 10 11  2  0  0  0  0
 12 14  1  0  0  0  0
 12 10  1  0  0  0  0
 13 12  2  0  0  0  0
 15 16  1  0  0  0  0
 17  1  1  0  0  0  0
 18 17  1  0  0  0  0
 19 18  1  0  0  0  0
 19 20  1  0  0  0  0
 20 22  1  0  0  0  0
 22 21  1  0  0  0  0
M  END
>  <minimizedAffinity>
-3.69846725

$$$$
