
 OpenBabel09122222393D

 31 34  0  0  1  0  0  0  0  0999 V2000
    5.4410   -2.2120    7.4850 N   0  0  0  0  0  0  0  0  0  0  0  0
    6.2780   -2.8790    6.5750 C   0  0  0  0  0  0  0  0  0  0  0  0
    7.5050   -2.8220    6.5150 O   0  0  0  0  0  0  0  0  0  0  0  0
    5.9380   -1.0680    8.1300 C   0  0  0  0  0  0  0  0  0  0  0  0
    5.4880   -0.6260    9.2870 N   0  0  0  0  0  0  0  0  0  0  0  0
    6.0860    0.5860    9.5890 C   0  0  0  0  0  3  0  0  0  0  0  0
    6.9470    1.0770    8.6350 C   0  0  0  0  0  0  0  0  0  0  0  0
    7.0440   -0.0210    7.3320 S   0  0  0  0  0  0  0  0  0  0  0  0
    2.6100   -1.2200    6.8070 C   0  0  0  0  0  1  0  0  0  0  0  0
    2.9630   -1.9170    8.1240 C   0  0  1  0  0  3  0  0  0  0  0  0
    1.7400   -2.7040    8.6290 C   0  0  0  0  0  2  0  0  0  0  0  0
    2.0370   -3.4500    9.9260 C   0  0  0  0  0  2  0  0  0  0  0  0
    3.2310   -4.3830    9.7730 C   0  0  0  0  0  2  0  0  0  0  0  0
    4.4680   -3.6340    9.2880 C   0  0  0  0  0  2  0  0  0  0  0  0
    4.1930   -2.8590    7.9820 C   0  0  2  0  0  3  0  0  0  0  0  0
    5.6480   -3.8000    5.6010 C   0  0  0  0  0  0  0  0  0  0  0  0
    4.6740   -4.7000    6.0460 C   0  0  0  0  0  3  0  0  0  0  0  0
    4.0740   -5.5710    5.1350 C   0  0  0  0  0  3  0  0  0  0  0  0
    4.4490   -5.5340    3.7910 C   0  0  0  0  0  0  0  0  0  0  0  0
    5.4610   -4.6720    3.3570 C   0  0  0  0  0  3  0  0  0  0  0  0
    6.0660   -3.8030    4.2660 C   0  0  0  0  0  3  0  0  0  0  0  0
    3.8390   -6.4300    2.9420 O   0  0  0  0  0  0  0  0  0  0  0  0
    4.4410   -6.6370    1.7210 C   0  0  0  0  0  0  0  0  0  0  0  0
    4.5180   -5.6480    0.7370 C   0  0  0  0  0  3  0  0  0  0  0  0
    5.1090   -5.9380   -0.4930 C   0  0  0  0  0  3  0  0  0  0  0  0
    5.6070   -7.2170   -0.7440 C   0  0  0  0  0  3  0  0  0  0  0  0
    5.5100   -8.2110    0.2310 C   0  0  0  0  0  3  0  0  0  0  0  0
    4.9190   -7.9230    1.4620 C   0  0  0  0  0  3  0  0  0  0  0  0
    7.6470    2.3710    8.7490 C   0  0  0  0  0  0  0  0  0  0  0  0
    7.9220    2.7880    9.9150 O   0  0  0  0  0  1  0  0  0  0  0  0
    7.9280    2.9550    7.6560 O   0  0  0  0  0  0  0  0  0  0  0  0
  1  4  1  0  0  0  0
  2  1  1  0  0  0  0
  3  2  2  0  0  0  0
  4  5  2  0  0  0  0
  5  6  1  0  0  0  0
  7 29  1  0  0  0  0
  7  6  2  0  0  0  0
  8  4  1  0  0  0  0
  8  7  1  0  0  0  0
 10  9  1  6  0  0  0
 10 11  1  0  0  0  0
 11 12  1  0  0  0  0
 13 12  1  0  0  0  0
 14 13  1  0  0  0  0
 15  1  1  1  0  0  0
 15 10  1  0  0  0  0
 15 14  1  0  0  0  0
 16 17  1  0  0  0  0
 16  2  1  0  0  0  0
 18 17  2  0  0  0  0
 19 18  1  0  0  0  0
 20 19  2  0  0  0  0
 20 21  1  0  0  0  0
 21 16  2  0  0  0  0
 22 19  1  0  0  0  0
 23 22  1  0  0  0  0
 24 23  2  0  0  0  0
 25 24  1  0  0  0  0
 26 25  2  0  0  0  0
 26 27  1  0  0  0  0
 27 28  2  0  0  0  0
 28 23  1  0  0  0  0
 29 30  1  0  0  0  0
 31 29  2  0  0  0  0
M  END
>  <minimizedAffinity>
-4.93469572

$$$$
