
 OpenBabel09122220423D

 31 34  0  0  1  0  0  0  0  0999 V2000
    4.0200   -5.9120    4.6250 N   0  0  0  0  0  0  0  0  0  0  0  0
    3.5960   -7.1750    5.0690 C   0  0  0  0  0  0  0  0  0  0  0  0
    4.0690   -8.2680    4.7620 O   0  0  0  0  0  0  0  0  0  0  0  0
    4.7580   -5.8390    3.4320 C   0  0  0  0  0  0  0  0  0  0  0  0
    5.5840   -4.8550    3.1400 N   0  0  0  0  0  0  0  0  0  0  0  0
    6.0520   -5.0060    1.8460 C   0  0  0  0  0  3  0  0  0  0  0  0
    5.5390   -6.0760    1.1500 C   0  0  0  0  0  0  0  0  0  0  0  0
    4.4640   -6.9460    2.1490 S   0  0  0  0  0  0  0  0  0  0  0  0
    1.9720   -3.6360    4.3460 C   0  0  0  0  0  1  0  0  0  0  0  0
    3.3830   -3.4320    4.9020 C   0  0  1  0  0  3  0  0  0  0  0  0
    3.3630   -2.2950    5.9400 C   0  0  0  0  0  2  0  0  0  0  0  0
    4.7380   -2.0620    6.5580 C   0  0  0  0  0  2  0  0  0  0  0  0
    5.2900   -3.3330    7.1890 C   0  0  0  0  0  2  0  0  0  0  0  0
    5.3390   -4.4800    6.1840 C   0  0  0  0  0  2  0  0  0  0  0  0
    3.9620   -4.7310    5.5330 C   0  0  2  0  0  3  0  0  0  0  0  0
    2.4940   -7.2290    6.0570 C   0  0  0  0  0  0  0  0  0  0  0  0
    2.8030   -7.3490    7.4160 C   0  0  0  0  0  3  0  0  0  0  0  0
    1.7720   -7.3980    8.3550 C   0  0  0  0  0  3  0  0  0  0  0  0
    0.4440   -7.3260    7.9300 C   0  0  0  0  0  0  0  0  0  0  0  0
    0.1340   -7.2610    6.5680 C   0  0  0  0  0  3  0  0  0  0  0  0
    1.1630   -7.2150    5.6260 C   0  0  0  0  0  3  0  0  0  0  0  0
   -0.5330   -7.4000    8.8980 O   0  0  0  0  0  0  0  0  0  0  0  0
   -1.7970   -7.7490    8.4780 C   0  0  0  0  0  0  0  0  0  0  0  0
   -2.4120   -7.1690    7.3660 C   0  0  0  0  0  3  0  0  0  0  0  0
   -3.7120   -7.5410    7.0200 C   0  0  0  0  0  3  0  0  0  0  0  0
   -4.3990   -8.4790    7.7920 C   0  0  0  0  0  3  0  0  0  0  0  0
   -3.7920   -9.0410    8.9150 C   0  0  0  0  0  3  0  0  0  0  0  0
   -2.4920   -8.6700    9.2640 C   0  0  0  0  0  3  0  0  0  0  0  0
    5.8780   -6.3810   -0.2530 C   0  0  0  0  0  0  0  0  0  0  0  0
    5.2470   -7.3250   -0.8180 O   0  0  0  0  0  0  0  0  0  0  0  0
    6.7750   -5.6540   -0.7840 O   0  0  0  0  0  1  0  0  0  0  0  0
  1  2  1  0  0  0  0
  2 16  1  0  0  0  0
  3  2  2  0  0  0  0
  4  1  1  0  0  0  0
  5  4  2  0  0  0  0
  6  5  1  0  0  0  0
  7  6  2  0  0  0  0
  7  8  1  0  0  0  0
  8  4  1  0  0  0  0
 10  9  1  1  0  0  0
 10 15  1  0  0  0  0
 10 11  1  0  0  0  0
 11 12  1  0  0  0  0
 12 13  1  0  0  0  0
 14 13  1  0  0  0  0
 15  1  1  6  0  0  0
 15 14  1  0  0  0  0
 16 17  1  0  0  0  0
 17 18  2  0  0  0  0
 19 18  1  0  0  0  0
 19 22  1  0  0  0  0
 20 19  2  0  0  0  0
 21 16  2  0  0  0  0
 21 20  1  0  0  0  0
 23 22  1  0  0  0  0
 23 28  1  0  0  0  0
 24 23  2  0  0  0  0
 25 24  1  0  0  0  0
 25 26  2  0  0  0  0
 26 27  1  0  0  0  0
 27 28  2  0  0  0  0
 29  7  1  0  0  0  0
 30 29  2  0  0  0  0
 31 29  1  0  0  0  0
M  END
>  <minimizedAffinity>
-7.07536316

$$$$

 OpenBabel09122220423D

 31 34  0  0  1  0  0  0  0  0999 V2000
    1.5870   -6.9820    6.7210 N   0  0  0  0  0  0  0  0  0  0  0  0
    1.8470   -6.9750    8.1020 C   0  0  0  0  0  0  0  0  0  0  0  0
    1.2400   -7.5910    8.9760 O   0  0  0  0  0  0  0  0  0  0  0  0
    0.3070   -7.3680    6.2880 C   0  0  0  0  0  0  0  0  0  0  0  0
    0.0560   -7.8530    5.0900 N   0  0  0  0  0  0  0  0  0  0  0  0
   -1.3110   -8.0110    4.9260 C   0  0  0  0  0  3  0  0  0  0  0  0
   -2.0860   -7.5960    5.9840 C   0  0  0  0  0  0  0  0  0  0  0  0
   -1.0830   -7.0240    7.2400 S   0  0  0  0  0  0  0  0  0  0  0  0
    2.4020   -4.3760    5.3080 C   0  0  0  0  0  1  0  0  0  0  0  0
    2.5590   -5.7600    4.6740 C   0  0  1  0  0  3  0  0  0  0  0  0
    3.7770   -5.7550    3.7310 C   0  0  0  0  0  2  0  0  0  0  0  0
    4.0080   -7.1190    3.0890 C   0  0  0  0  0  2  0  0  0  0  0  0
    4.1650   -8.2120    4.1390 C   0  0  0  0  0  2  0  0  0  0  0  0
    2.9680   -8.2570    5.0830 C   0  0  0  0  0  2  0  0  0  0  0  0
    2.7030   -6.8850    5.7390 C   0  0  2  0  0  3  0  0  0  0  0  0
    3.0070   -6.1910    8.5840 C   0  0  0  0  0  0  0  0  0  0  0  0
    2.8530   -4.8190    8.8170 C   0  0  0  0  0  3  0  0  0  0  0  0
    3.9400   -4.0720    9.2730 C   0  0  0  0  0  3  0  0  0  0  0  0
    5.1670   -4.6990    9.4950 C   0  0  0  0  0  0  0  0  0  0  0  0
    5.3350   -6.0580    9.2110 C   0  0  0  0  0  3  0  0  0  0  0  0
    4.2520   -6.8070    8.7510 C   0  0  0  0  0  3  0  0  0  0  0  0
    6.2100   -3.9090    9.9250 O   0  0  0  0  0  0  0  0  0  0  0  0
    6.6750   -2.9590    9.0430 C   0  0  0  0  0  0  0  0  0  0  0  0
    7.1990   -3.2830    7.7890 C   0  0  0  0  0  3  0  0  0  0  0  0
    7.6880   -2.2720    6.9600 C   0  0  0  0  0  3  0  0  0  0  0  0
    7.6660   -0.9450    7.3900 C   0  0  0  0  0  3  0  0  0  0  0  0
    7.1630   -0.6250    8.6520 C   0  0  0  0  0  3  0  0  0  0  0  0
    6.6740   -1.6340    9.4830 C   0  0  0  0  0  3  0  0  0  0  0  0
   -3.5610   -7.6400    5.9870 C   0  0  0  0  0  0  0  0  0  0  0  0
   -4.1160   -8.7240    6.3430 O   0  0  0  0  0  1  0  0  0  0  0  0
   -4.1540   -6.5710    5.6410 O   0  0  0  0  0  0  0  0  0  0  0  0
  1  2  1  0  0  0  0
  2 16  1  0  0  0  0
  2  3  2  0  0  0  0
  4  1  1  0  0  0  0
  4  8  1  0  0  0  0
  5  4  2  0  0  0  0
  6  5  1  0  0  0  0
  6  7  2  0  0  0  0
  7 29  1  0  0  0  0
  7  8  1  0  0  0  0
 10  9  1  1  0  0  0
 10 15  1  0  0  0  0
 11 10  1  0  0  0  0
 12 11  1  0  0  0  0
 12 13  1  0  0  0  0
 13 14  1  0  0  0  0
 14 15  1  0  0  0  0
 15  1  1  6  0  0  0
 16 21  2  0  0  0  0
 16 17  1  0  0  0  0
 17 18  2  0  0  0  0
 18 19  1  0  0  0  0
 19 22  1  0  0  0  0
 20 19  2  0  0  0  0
 21 20  1  0  0  0  0
 23 28  1  0  0  0  0
 23 22  1  0  0  0  0
 24 23  2  0  0  0  0
 25 26  2  0  0  0  0
 25 24  1  0  0  0  0
 26 27  1  0  0  0  0
 27 28  2  0  0  0  0
 29 30  1  0  0  0  0
 31 29  2  0  0  0  0
M  END
>  <minimizedAffinity>
-6.38850451

$$$$

 OpenBabel09122220423D

 31 34  0  0  1  0  0  0  0  0999 V2000
    3.8100   -5.6060    4.1360 N   0  0  0  0  0  0  0  0  0  0  0  0
    3.6120   -6.7910    4.8640 C   0  0  0  0  0  0  0  0  0  0  0  0
    4.2780   -7.8230    4.8000 O   0  0  0  0  0  0  0  0  0  0  0  0
    4.5430   -5.6750    2.9390 C   0  0  0  0  0  0  0  0  0  0  0  0
    5.1830   -4.6520    2.4130 N   0  0  0  0  0  0  0  0  0  0  0  0
    5.6920   -5.0060    1.1740 C   0  0  0  0  0  3  0  0  0  0  0  0
    5.3910   -6.2800    0.7510 C   0  0  0  0  0  0  0  0  0  0  0  0
    4.4730   -7.0780    1.9470 S   0  0  0  0  0  0  0  0  0  0  0  0
    5.6450   -4.2470    6.1950 C   0  0  0  0  0  1  0  0  0  0  0  0
    4.1250   -4.0610    6.1720 C   0  0  1  0  0  3  0  0  0  0  0  0
    3.7750   -2.6550    6.6920 C   0  0  0  0  0  2  0  0  0  0  0  0
    2.2720   -2.3950    6.6650 C   0  0  0  0  0  2  0  0  0  0  0  0
    1.6950   -2.5940    5.2690 C   0  0  0  0  0  2  0  0  0  0  0  0
    2.0110   -3.9840    4.7270 C   0  0  0  0  0  2  0  0  0  0  0  0
    3.5250   -4.2800    4.7540 C   0  0  2  0  0  3  0  0  0  0  0  0
    2.5210   -6.8150    5.8650 C   0  0  0  0  0  0  0  0  0  0  0  0
    2.8230   -6.5680    7.2090 C   0  0  0  0  0  3  0  0  0  0  0  0
    1.8020   -6.5870    8.1590 C   0  0  0  0  0  3  0  0  0  0  0  0
    0.4900   -6.8500    7.7610 C   0  0  0  0  0  0  0  0  0  0  0  0
    0.1960   -7.1510    6.4270 C   0  0  0  0  0  3  0  0  0  0  0  0
    1.2160   -7.1360    5.4750 C   0  0  0  0  0  3  0  0  0  0  0  0
   -0.4740   -6.8760    8.7440 O   0  0  0  0  0  0  0  0  0  0  0  0
   -1.6790   -7.4550    8.4170 C   0  0  0  0  0  0  0  0  0  0  0  0
   -2.4390   -7.0510    7.3160 C   0  0  0  0  0  3  0  0  0  0  0  0
   -3.6710   -7.6550    7.0640 C   0  0  0  0  0  3  0  0  0  0  0  0
   -4.1490   -8.6490    7.9190 C   0  0  0  0  0  3  0  0  0  0  0  0
   -3.4000   -9.0360    9.0310 C   0  0  0  0  0  3  0  0  0  0  0  0
   -2.1680   -8.4330    9.2850 C   0  0  0  0  0  3  0  0  0  0  0  0
    5.8040   -6.8300   -0.5540 C   0  0  0  0  0  0  0  0  0  0  0  0
    6.5670   -6.1190   -1.2760 O   0  0  0  0  0  0  0  0  0  0  0  0
    5.3640   -7.9870   -0.8400 O   0  0  0  0  0  1  0  0  0  0  0  0
  1  2  1  0  0  0  0
  2 16  1  0  0  0  0
  3  2  2  0  0  0  0
  4  1  1  0  0  0  0
  5  4  2  0  0  0  0
  6  5  1  0  0  0  0
  7  6  2  0  0  0  0
  7  8  1  0  0  0  0
  8  4  1  0  0  0  0
 10  9  1  6  0  0  0
 10 11  1  0  0  0  0
 12 11  1  0  0  0  0
 13 12  1  0  0  0  0
 14 15  1  0  0  0  0
 14 13  1  0  0  0  0
 15  1  1  1  0  0  0
 15 10  1  0  0  0  0
 16 17  1  0  0  0  0
 17 18  2  0  0  0  0
 19 18  1  0  0  0  0
 19 22  1  0  0  0  0
 20 19  2  0  0  0  0
 21 16  2  0  0  0  0
 21 20  1  0  0  0  0
 23 22  1  0  0  0  0
 23 28  1  0  0  0  0
 24 23  2  0  0  0  0
 25 24  1  0  0  0  0
 25 26  2  0  0  0  0
 26 27  1  0  0  0  0
 27 28  2  0  0  0  0
 29  7  1  0  0  0  0
 30 29  2  0  0  0  0
 31 29  1  0  0  0  0
M  END
>  <minimizedAffinity>
-6.23222113

$$$$

 OpenBabel09122220423D

 31 34  0  0  1  0  0  0  0  0999 V2000
    1.2640   -6.6410    6.7160 N   0  0  0  0  0  0  0  0  0  0  0  0
    1.8290   -7.0110    7.9470 C   0  0  0  0  0  0  0  0  0  0  0  0
    1.5060   -7.9620    8.6570 O   0  0  0  0  0  0  0  0  0  0  0  0
   -0.0320   -7.0950    6.4150 C   0  0  0  0  0  0  0  0  0  0  0  0
   -0.4950   -7.2260    5.1890 N   0  0  0  0  0  0  0  0  0  0  0  0
   -1.8380   -7.5640    5.2310 C   0  0  0  0  0  3  0  0  0  0  0  0
   -2.3930   -7.6370    6.4880 C   0  0  0  0  0  0  0  0  0  0  0  0
   -1.1980   -7.3090    7.6610 S   0  0  0  0  0  0  0  0  0  0  0  0
    3.1010   -8.2930    4.8850 C   0  0  0  0  0  1  0  0  0  0  0  0
    3.4010   -6.8480    5.2940 C   0  0  1  0  0  3  0  0  0  0  0  0
    4.1770   -6.1480    4.1630 C   0  0  0  0  0  2  0  0  0  0  0  0
    4.4800   -4.6910    4.4960 C   0  0  0  0  0  2  0  0  0  0  0  0
    3.2090   -3.9140    4.8150 C   0  0  0  0  0  2  0  0  0  0  0  0
    2.4210   -4.5720    5.9440 C   0  0  0  0  0  2  0  0  0  0  0  0
    2.1100   -6.0520    5.6390 C   0  0  2  0  0  3  0  0  0  0  0  0
    2.9770   -6.2210    8.4490 C   0  0  0  0  0  0  0  0  0  0  0  0
    2.7620   -4.9090    8.8860 C   0  0  0  0  0  3  0  0  0  0  0  0
    3.8360   -4.1580    9.3620 C   0  0  0  0  0  3  0  0  0  0  0  0
    5.1130   -4.7200    9.3990 C   0  0  0  0  0  0  0  0  0  0  0  0
    5.3370   -6.0120    8.9110 C   0  0  0  0  0  3  0  0  0  0  0  0
    4.2650   -6.7650    8.4310 C   0  0  0  0  0  3  0  0  0  0  0  0
    6.1400   -3.9250    9.8580 O   0  0  0  0  0  0  0  0  0  0  0  0
    6.6180   -2.9670    8.9930 C   0  0  0  0  0  0  0  0  0  0  0  0
    6.2560   -1.6210    9.0790 C   0  0  0  0  0  3  0  0  0  0  0  0
    6.7490   -0.7090    8.1450 C   0  0  0  0  0  3  0  0  0  0  0  0
    7.5890   -1.1450    7.1200 C   0  0  0  0  0  3  0  0  0  0  0  0
    7.9320   -2.4940    7.0210 C   0  0  0  0  0  3  0  0  0  0  0  0
    7.4400   -3.4080    7.9540 C   0  0  0  0  0  3  0  0  0  0  0  0
   -3.8140   -7.9390    6.7410 C   0  0  0  0  0  0  0  0  0  0  0  0
   -4.4910   -7.0810    7.3850 O   0  0  0  0  0  1  0  0  0  0  0  0
   -4.2460   -9.0390    6.2730 O   0  0  0  0  0  0  0  0  0  0  0  0
  1  2  1  0  0  0  0
  2 16  1  0  0  0  0
  2  3  2  0  0  0  0
  4  1  1  0  0  0  0
  4  8  1  0  0  0  0
  5  6  1  0  0  0  0
  5  4  2  0  0  0  0
  6  7  2  0  0  0  0
  7 29  1  0  0  0  0
  7  8  1  0  0  0  0
 10  9  1  6  0  0  0
 10 15  1  0  0  0  0
 11 12  1  0  0  0  0
 11 10  1  0  0  0  0
 12 13  1  0  0  0  0
 13 14  1  0  0  0  0
 15 14  1  0  0  0  0
 15  1  1  1  0  0  0
 16 17  1  0  0  0  0
 17 18  2  0  0  0  0
 18 19  1  0  0  0  0
 19 22  1  0  0  0  0
 20 19  2  0  0  0  0
 21 16  2  0  0  0  0
 21 20  1  0  0  0  0
 23 24  1  0  0  0  0
 23 22  1  0  0  0  0
 25 24  2  0  0  0  0
 26 25  1  0  0  0  0
 27 26  2  0  0  0  0
 27 28  1  0  0  0  0
 28 23  2  0  0  0  0
 29 30  1  0  0  0  0
 31 29  2  0  0  0  0
M  END
>  <minimizedAffinity>
-5.75864315

$$$$

 OpenBabel09122220423D

 31 34  0  0  1  0  0  0  0  0999 V2000
    3.5930   -5.9340    6.8460 N   0  0  0  0  0  0  0  0  0  0  0  0
    3.2030   -6.5050    5.6230 C   0  0  0  0  0  0  0  0  0  0  0  0
    3.9160   -6.7250    4.6460 O   0  0  0  0  0  0  0  0  0  0  0  0
    4.7650   -5.1600    6.8760 C   0  0  0  0  0  0  0  0  0  0  0  0
    5.4820   -4.9590    7.9620 N   0  0  0  0  0  0  0  0  0  0  0  0
    6.4940   -4.0520    7.6930 C   0  0  0  0  0  3  0  0  0  0  0  0
    6.5050   -3.5360    6.4180 C   0  0  0  0  0  0  0  0  0  0  0  0
    5.2360   -4.2270    5.5100 S   0  0  0  0  0  0  0  0  0  0  0  0
    3.9290   -8.7520    8.0300 C   0  0  0  0  0  1  0  0  0  0  0  0
    2.6720   -7.9020    8.2290 C   0  0  1  0  0  3  0  0  0  0  0  0
    2.0430   -8.2340    9.5950 C   0  0  0  0  0  2  0  0  0  0  0  0
    0.7990   -7.3940    9.8690 C   0  0  0  0  0  2  0  0  0  0  0  0
    1.1000   -5.9040    9.7810 C   0  0  0  0  0  2  0  0  0  0  0  0
    1.7120   -5.5350    8.4340 C   0  0  0  0  0  2  0  0  0  0  0  0
    2.9670   -6.3780    8.1240 C   0  0  2  0  0  3  0  0  0  0  0  0
    1.7980   -6.9490    5.4820 C   0  0  0  0  0  0  0  0  0  0  0  0
    1.5260   -8.3130    5.3280 C   0  0  0  0  0  3  0  0  0  0  0  0
    0.2050   -8.7410    5.1960 C   0  0  0  0  0  3  0  0  0  0  0  0
   -0.8320   -7.8070    5.2210 C   0  0  0  0  0  0  0  0  0  0  0  0
   -0.5570   -6.4400    5.3200 C   0  0  0  0  0  3  0  0  0  0  0  0
    0.7630   -6.0070    5.4490 C   0  0  0  0  0  3  0  0  0  0  0  0
   -2.1150   -8.2850    5.0650 O   0  0  0  0  0  0  0  0  0  0  0  0
   -2.9940   -8.0490    6.0970 C   0  0  0  0  0  0  0  0  0  0  0  0
   -3.3820   -9.0400    7.0030 C   0  0  0  0  0  3  0  0  0  0  0  0
   -4.3080   -8.7410    8.0030 C   0  0  0  0  0  3  0  0  0  0  0  0
   -4.8560   -7.4610    8.0880 C   0  0  0  0  0  3  0  0  0  0  0  0
   -4.4850   -6.4780    7.1690 C   0  0  0  0  0  3  0  0  0  0  0  0
   -3.5600   -6.7740    6.1680 C   0  0  0  0  0  3  0  0  0  0  0  0
    7.4730   -2.5270    5.9500 C   0  0  0  0  0  0  0  0  0  0  0  0
    7.9420   -2.6610    4.7790 O   0  0  0  0  0  0  0  0  0  0  0  0
    7.7460   -1.5910    6.7650 O   0  0  0  0  0  1  0  0  0  0  0  0
  1  4  1  0  0  0  0
  2  1  1  0  0  0  0
  3  2  2  0  0  0  0
  4  5  2  0  0  0  0
  6  5  1  0  0  0  0
  7  6  2  0  0  0  0
  8  7  1  0  0  0  0
  8  4  1  0  0  0  0
 10  9  1  1  0  0  0
 10 11  1  0  0  0  0
 11 12  1  0  0  0  0
 13 12  1  0  0  0  0
 14 13  1  0  0  0  0
 15  1  1  6  0  0  0
 15 10  1  0  0  0  0
 15 14  1  0  0  0  0
 16  2  1  0  0  0  0
 17 16  2  0  0  0  0
 18 19  2  0  0  0  0
 18 17  1  0  0  0  0
 19 20  1  0  0  0  0
 20 21  2  0  0  0  0
 21 16  1  0  0  0  0
 22 19  1  0  0  0  0
 22 23  1  0  0  0  0
 23 28  2  0  0  0  0
 23 24  1  0  0  0  0
 24 25  2  0  0  0  0
 25 26  1  0  0  0  0
 27 26  2  0  0  0  0
 28 27  1  0  0  0  0
 29  7  1  0  0  0  0
 29 31  1  0  0  0  0
 30 29  2  0  0  0  0
M  END
>  <minimizedAffinity>
-5.36392498

$$$$

 OpenBabel09122220423D

 31 34  0  0  1  0  0  0  0  0999 V2000
    4.1930   -4.7270    5.5020 N   0  0  0  0  0  0  0  0  0  0  0  0
    2.8830   -4.3220    5.8060 C   0  0  0  0  0  0  0  0  0  0  0  0
    2.4830   -3.1730    5.9820 O   0  0  0  0  0  0  0  0  0  0  0  0
    5.2490   -3.8540    5.8160 C   0  0  0  0  0  0  0  0  0  0  0  0
    6.4180   -3.8730    5.2090 N   0  0  0  0  0  0  0  0  0  0  0  0
    7.2810   -2.9860    5.8320 C   0  0  0  0  0  3  0  0  0  0  0  0
    6.7730   -2.3390    6.9350 C   0  0  0  0  0  0  0  0  0  0  0  0
    5.1570   -2.8230    7.1890 S   0  0  0  0  0  0  0  0  0  0  0  0
    4.5330   -4.5070    2.4540 C   0  0  0  0  0  1  0  0  0  0  0  0
    3.9310   -5.7330    3.1460 C   0  0  1  0  0  3  0  0  0  0  0  0
    4.2560   -6.9940    2.3240 C   0  0  0  0  0  2  0  0  0  0  0  0
    3.7090   -8.2590    2.9790 C   0  0  0  0  0  2  0  0  0  0  0  0
    4.2240   -8.4180    4.4030 C   0  0  0  0  0  2  0  0  0  0  0  0
    3.9070   -7.1920    5.2530 C   0  0  0  0  0  2  0  0  0  0  0  0
    4.4380   -5.8940    4.6080 C   0  0  2  0  0  3  0  0  0  0  0  0
    1.8330   -5.3640    5.8750 C   0  0  0  0  0  0  0  0  0  0  0  0
    1.7470   -6.1690    7.0170 C   0  0  0  0  0  3  0  0  0  0  0  0
    0.7600   -7.1530    7.0920 C   0  0  0  0  0  3  0  0  0  0  0  0
   -0.1310   -7.3230    6.0320 C   0  0  0  0  0  0  0  0  0  0  0  0
   -0.0100   -6.5560    4.8690 C   0  0  0  0  0  3  0  0  0  0  0  0
    0.9780   -5.5740    4.7880 C   0  0  0  0  0  3  0  0  0  0  0  0
   -1.0710   -8.3230    6.1520 O   0  0  0  0  0  0  0  0  0  0  0  0
   -2.2210   -8.0150    6.8420 C   0  0  0  0  0  0  0  0  0  0  0  0
   -3.0760   -6.9770    6.4630 C   0  0  0  0  0  3  0  0  0  0  0  0
   -4.2060   -6.6940    7.2320 C   0  0  0  0  0  3  0  0  0  0  0  0
   -4.4710   -7.4360    8.3830 C   0  0  0  0  0  3  0  0  0  0  0  0
   -3.6040   -8.4570    8.7740 C   0  0  0  0  0  3  0  0  0  0  0  0
   -2.4730   -8.7420    8.0070 C   0  0  0  0  0  3  0  0  0  0  0  0
    7.5480   -1.3920    7.7590 C   0  0  0  0  0  0  0  0  0  0  0  0
    7.9380   -1.7870    8.8990 O   0  0  0  0  0  1  0  0  0  0  0  0
    7.7700   -0.2520    7.2420 O   0  0  0  0  0  0  0  0  0  0  0  0
  1  2  1  0  0  0  0
  1  4  1  0  0  0  0
  2 16  1  0  0  0  0
  2  3  2  0  0  0  0
  4  8  1  0  0  0  0
  5  4  2  0  0  0  0
  5  6  1  0  0  0  0
  6  7  2  0  0  0  0
  7  8  1  0  0  0  0
  7 29  1  0  0  0  0
 10  9  1  6  0  0  0
 10 15  1  0  0  0  0
 11 12  1  0  0  0  0
 11 10  1  0  0  0  0
 12 13  1  0  0  0  0
 13 14  1  0  0  0  0
 15 14  1  0  0  0  0
 15  1  1  1  0  0  0
 16 17  1  0  0  0  0
 17 18  2  0  0  0  0
 19 22  1  0  0  0  0
 19 18  1  0  0  0  0
 20 19  2  0  0  0  0
 21 20  1  0  0  0  0
 21 16  2  0  0  0  0
 22 23  1  0  0  0  0
 23 28  1  0  0  0  0
 24 23  2  0  0  0  0
 24 25  1  0  0  0  0
 25 26  2  0  0  0  0
 26 27  1  0  0  0  0
 28 27  2  0  0  0  0
 29 30  1  0  0  0  0
 31 29  2  0  0  0  0
M  END
>  <minimizedAffinity>
-5.35350704

$$$$

 OpenBabel09122220423D

 31 34  0  0  1  0  0  0  0  0999 V2000
    3.5590   -6.1430    4.3520 N   0  0  0  0  0  0  0  0  0  0  0  0
    3.5650   -4.7460    4.4920 C   0  0  0  0  0  0  0  0  0  0  0  0
    3.4000   -3.9090    3.6050 O   0  0  0  0  0  0  0  0  0  0  0  0
    3.8000   -6.6850    3.0770 C   0  0  0  0  0  0  0  0  0  0  0  0
    3.3890   -7.8780    2.7000 N   0  0  0  0  0  0  0  0  0  0  0  0
    3.8960   -8.1710    1.4450 C   0  0  0  0  0  3  0  0  0  0  0  0
    4.7260   -7.2180    0.9020 C   0  0  0  0  0  0  0  0  0  0  0  0
    4.8550   -5.8960    1.9730 S   0  0  0  0  0  0  0  0  0  0  0  0
    0.5670   -6.3920    5.0130 C   0  0  0  0  0  1  0  0  0  0  0  0
    1.6740   -6.5410    6.0600 C   0  0  1  0  0  3  0  0  0  0  0  0
    1.2150   -7.5260    7.1510 C   0  0  0  0  0  2  0  0  0  0  0  0
    2.2890   -7.7430    8.2120 C   0  0  0  0  0  2  0  0  0  0  0  0
    3.5970   -8.2210    7.5940 C   0  0  0  0  0  2  0  0  0  0  0  0
    4.0900   -7.2600    6.5170 C   0  0  0  0  0  2  0  0  0  0  0  0
    3.0180   -7.0120    5.4350 C   0  0  2  0  0  3  0  0  0  0  0  0
    3.7340   -4.1860    5.8520 C   0  0  0  0  0  0  0  0  0  0  0  0
    4.9710   -4.3160    6.4940 C   0  0  0  0  0  3  0  0  0  0  0  0
    5.1400   -3.7900    7.7750 C   0  0  0  0  0  3  0  0  0  0  0  0
    4.0770   -3.1400    8.4040 C   0  0  0  0  0  0  0  0  0  0  0  0
    2.8250   -3.0590    7.7850 C   0  0  0  0  0  3  0  0  0  0  0  0
    2.6510   -3.5860    6.5040 C   0  0  0  0  0  3  0  0  0  0  0  0
    4.2940   -2.6600    9.6760 O   0  0  0  0  0  0  0  0  0  0  0  0
    5.0700   -1.5290    9.7880 C   0  0  0  0  0  0  0  0  0  0  0  0
    4.5310   -0.2400    9.8190 C   0  0  0  0  0  3  0  0  0  0  0  0
    5.3790    0.8650    9.8960 C   0  0  0  0  0  3  0  0  0  0  0  0
    6.7620    0.6840    9.9270 C   0  0  0  0  0  3  0  0  0  0  0  0
    7.3010   -0.6020    9.8730 C   0  0  0  0  0  3  0  0  0  0  0  0
    6.4550   -1.7100    9.7960 C   0  0  0  0  0  3  0  0  0  0  0  0
    5.3980   -7.3620   -0.4030 C   0  0  0  0  0  0  0  0  0  0  0  0
    5.2480   -8.4590   -1.0230 O   0  0  0  0  0  0  0  0  0  0  0  0
    6.0660   -6.3580   -0.8040 O   0  0  0  0  0  1  0  0  0  0  0  0
  1  2  1  0  0  0  0
  2 16  1  0  0  0  0
  3  2  2  0  0  0  0
  4  1  1  0  0  0  0
  5  4  2  0  0  0  0
  6  5  1  0  0  0  0
  7  6  2  0  0  0  0
  7  8  1  0  0  0  0
  8  4  1  0  0  0  0
 10  9  1  6  0  0  0
 10 11  1  0  0  0  0
 11 12  1  0  0  0  0
 13 12  1  0  0  0  0
 14 13  1  0  0  0  0
 15  1  1  6  0  0  0
 15 10  1  0  0  0  0
 15 14  1  0  0  0  0
 16 17  2  0  0  0  0
 16 21  1  0  0  0  0
 17 18  1  0  0  0  0
 18 19  2  0  0  0  0
 19 22  1  0  0  0  0
 20 19  1  0  0  0  0
 21 20  2  0  0  0  0
 22 23  1  0  0  0  0
 23 28  2  0  0  0  0
 23 24  1  0  0  0  0
 24 25  2  0  0  0  0
 25 26  1  0  0  0  0
 27 26  2  0  0  0  0
 28 27  1  0  0  0  0
 29  7  1  0  0  0  0
 30 29  2  0  0  0  0
 31 29  1  0  0  0  0
M  END
>  <minimizedAffinity>
-5.14593315

$$$$

 OpenBabel09122220423D

 31 34  0  0  1  0  0  0  0  0999 V2000
    4.4370   -3.8180    7.9150 N   0  0  0  0  0  0  0  0  0  0  0  0
    4.6250   -4.3670    6.6360 C   0  0  0  0  0  0  0  0  0  0  0  0
    5.6550   -4.3460    5.9630 O   0  0  0  0  0  0  0  0  0  0  0  0
    5.3140   -2.8060    8.3410 C   0  0  0  0  0  0  0  0  0  0  0  0
    5.5560   -2.5320    9.6060 N   0  0  0  0  0  0  0  0  0  0  0  0
    6.3540   -1.4040    9.6950 C   0  0  0  0  0  3  0  0  0  0  0  0
    6.6690   -0.8030    8.4980 C   0  0  0  0  0  0  0  0  0  0  0  0
    5.9780   -1.6900    7.2140 S   0  0  0  0  0  0  0  0  0  0  0  0
    4.9220   -6.6450    9.0230 C   0  0  0  0  0  1  0  0  0  0  0  0
    3.5270   -6.0420    8.8430 C   0  0  1  0  0  3  0  0  0  0  0  0
    2.5830   -6.6100    9.9180 C   0  0  0  0  0  2  0  0  0  0  0  0
    1.1790   -6.0220    9.8130 C   0  0  0  0  0  2  0  0  0  0  0  0
    1.2030   -4.5010    9.8910 C   0  0  0  0  0  2  0  0  0  0  0  0
    2.1180   -3.9010    8.8290 C   0  0  0  0  0  2  0  0  0  0  0  0
    3.5440   -4.4880    8.9030 C   0  0  2  0  0  3  0  0  0  0  0  0
    3.4950   -5.1030    6.0240 C   0  0  0  0  0  0  0  0  0  0  0  0
    3.5970   -6.4880    5.8540 C   0  0  0  0  0  3  0  0  0  0  0  0
    2.5370   -7.1900    5.2800 C   0  0  0  0  0  3  0  0  0  0  0  0
    1.3860   -6.5070    4.8840 C   0  0  0  0  0  0  0  0  0  0  0  0
    1.3070   -5.1160    5.0040 C   0  0  0  0  0  3  0  0  0  0  0  0
    2.3670   -4.4090    5.5740 C   0  0  0  0  0  3  0  0  0  0  0  0
    0.3800   -7.2480    4.3040 O   0  0  0  0  0  0  0  0  0  0  0  0
   -0.7640   -7.4300    5.0470 C   0  0  0  0  0  0  0  0  0  0  0  0
   -0.7990   -7.2680    6.4350 C   0  0  0  0  0  3  0  0  0  0  0  0
   -1.9850   -7.5070    7.1310 C   0  0  0  0  0  3  0  0  0  0  0  0
   -3.1270   -7.9210    6.4430 C   0  0  0  0  0  3  0  0  0  0  0  0
   -3.0840   -8.1040    5.0610 C   0  0  0  0  0  3  0  0  0  0  0  0
   -1.9000   -7.8660    4.3620 C   0  0  0  0  0  3  0  0  0  0  0  0
    7.4690    0.4310    8.3850 C   0  0  0  0  0  0  0  0  0  0  0  0
    7.9130    0.7400    7.2370 O   0  0  0  0  0  0  0  0  0  0  0  0
    7.6350    1.0920    9.4570 O   0  0  0  0  0  1  0  0  0  0  0  0
  1  4  1  0  0  0  0
  2  1  1  0  0  0  0
  3  2  2  0  0  0  0
  4  5  2  0  0  0  0
  5  6  1  0  0  0  0
  7  6  2  0  0  0  0
  8  4  1  0  0  0  0
  8  7  1  0  0  0  0
 10 15  1  0  0  0  0
 10  9  1  1  0  0  0
 10 11  1  0  0  0  0
 12 13  1  0  0  0  0
 12 11  1  0  0  0  0
 14 15  1  0  0  0  0
 14 13  1  0  0  0  0
 15  1  1  6  0  0  0
 16  2  1  0  0  0  0
 17 16  1  0  0  0  0
 18 17  2  0  0  0  0
 19 20  2  0  0  0  0
 19 18  1  0  0  0  0
 20 21  1  0  0  0  0
 21 16  2  0  0  0  0
 22 19  1  0  0  0  0
 22 23  1  0  0  0  0
 23 24  1  0  0  0  0
 24 25  2  0  0  0  0
 26 25  1  0  0  0  0
 27 26  2  0  0  0  0
 28 23  2  0  0  0  0
 28 27  1  0  0  0  0
 29  7  1  0  0  0  0
 29 31  1  0  0  0  0
 30 29  2  0  0  0  0
M  END
>  <minimizedAffinity>
-4.96802378

$$$$

 OpenBabel09122220423D

 31 34  0  0  1  0  0  0  0  0999 V2000
    3.5850   -5.4750    5.6740 N   0  0  0  0  0  0  0  0  0  0  0  0
    3.3540   -6.8460    5.4680 C   0  0  0  0  0  0  0  0  0  0  0  0
    4.1750   -7.6950    5.1280 O   0  0  0  0  0  0  0  0  0  0  0  0
    4.7100   -4.8930    5.0670 C   0  0  0  0  0  0  0  0  0  0  0  0
    5.2980   -3.8010    5.5110 N   0  0  0  0  0  0  0  0  0  0  0  0
    6.2890   -3.4100    4.6260 C   0  0  0  0  0  3  0  0  0  0  0  0
    6.4100   -4.1820    3.4930 C   0  0  0  0  0  0  0  0  0  0  0  0
    5.2780   -5.4570    3.5460 S   0  0  0  0  0  0  0  0  0  0  0  0
    1.9910   -2.8940    5.1690 C   0  0  0  0  0  1  0  0  0  0  0  0
    2.6910   -3.2040    6.4950 C   0  0  1  0  0  3  0  0  0  0  0  0
    1.9040   -2.5580    7.6500 C   0  0  0  0  0  2  0  0  0  0  0  0
    2.5330   -2.8570    9.0070 C   0  0  0  0  0  2  0  0  0  0  0  0
    2.6680   -4.3560    9.2430 C   0  0  0  0  0  2  0  0  0  0  0  0
    3.4560   -5.0290    8.1230 C   0  0  0  0  0  2  0  0  0  0  0  0
    2.8490   -4.7330    6.7360 C   0  0  2  0  0  3  0  0  0  0  0  0
    1.9930   -7.3670    5.7340 C   0  0  0  0  0  0  0  0  0  0  0  0
    1.4940   -7.3350    7.0410 C   0  0  0  0  0  3  0  0  0  0  0  0
    0.2130   -7.8210    7.3010 C   0  0  0  0  0  3  0  0  0  0  0  0
   -0.5590   -8.3330    6.2570 C   0  0  0  0  0  0  0  0  0  0  0  0
   -0.0400   -8.4140    4.9600 C   0  0  0  0  0  3  0  0  0  0  0  0
    1.2430   -7.9320    4.6980 C   0  0  0  0  0  3  0  0  0  0  0  0
   -1.8080   -8.8190    6.5750 O   0  0  0  0  0  0  0  0  0  0  0  0
   -2.7600   -7.8930    6.9380 C   0  0  0  0  0  0  0  0  0  0  0  0
   -3.5620   -8.0370    8.0730 C   0  0  0  0  0  3  0  0  0  0  0  0
   -4.5350   -7.0800    8.3610 C   0  0  0  0  0  3  0  0  0  0  0  0
   -4.7160   -5.9900    7.5080 C   0  0  0  0  0  3  0  0  0  0  0  0
   -3.9310   -5.8590    6.3620 C   0  0  0  0  0  3  0  0  0  0  0  0
   -2.9570   -6.8160    6.0720 C   0  0  0  0  0  3  0  0  0  0  0  0
    7.3750   -3.9040    2.4120 C   0  0  0  0  0  0  0  0  0  0  0  0
    7.9240   -2.7610    2.3930 O   0  0  0  0  0  1  0  0  0  0  0  0
    7.5830   -4.8510    1.5900 O   0  0  0  0  0  0  0  0  0  0  0  0
  2  1  1  0  0  0  0
  2 16  1  0  0  0  0
  3  2  2  0  0  0  0
  4  5  2  0  0  0  0
  4  1  1  0  0  0  0
  6  5  1  0  0  0  0
  7  8  1  0  0  0  0
  7  6  2  0  0  0  0
  8  4  1  0  0  0  0
 10  9  1  6  0  0  0
 10 15  1  0  0  0  0
 10 11  1  0  0  0  0
 11 12  1  0  0  0  0
 12 13  1  0  0  0  0
 14 13  1  0  0  0  0
 15  1  1  6  0  0  0
 15 14  1  0  0  0  0
 16 17  1  0  0  0  0
 17 18  2  0  0  0  0
 19 22  1  0  0  0  0
 19 18  1  0  0  0  0
 20 19  2  0  0  0  0
 21 20  1  0  0  0  0
 21 16  2  0  0  0  0
 22 23  1  0  0  0  0
 23 24  1  0  0  0  0
 24 25  2  0  0  0  0
 26 25  1  0  0  0  0
 27 26  2  0  0  0  0
 28 27  1  0  0  0  0
 28 23  2  0  0  0  0
 29  7  1  0  0  0  0
 30 29  1  0  0  0  0
 31 29  2  0  0  0  0
M  END
>  <minimizedAffinity>
-4.94283962

$$$$

 OpenBabel09122220423D

 31 34  0  0  1  0  0  0  0  0999 V2000
    5.4410   -2.2120    7.4850 N   0  0  0  0  0  0  0  0  0  0  0  0
    6.2780   -2.8790    6.5750 C   0  0  0  0  0  0  0  0  0  0  0  0
    7.5050   -2.8220    6.5150 O   0  0  0  0  0  0  0  0  0  0  0  0
    5.9380   -1.0680    8.1300 C   0  0  0  0  0  0  0  0  0  0  0  0
    5.4880   -0.6260    9.2870 N   0  0  0  0  0  0  0  0  0  0  0  0
    6.0860    0.5860    9.5890 C   0  0  0  0  0  3  0  0  0  0  0  0
    6.9470    1.0770    8.6350 C   0  0  0  0  0  0  0  0  0  0  0  0
    7.0440   -0.0210    7.3320 S   0  0  0  0  0  0  0  0  0  0  0  0
    2.6100   -1.2200    6.8070 C   0  0  0  0  0  1  0  0  0  0  0  0
    2.9630   -1.9170    8.1240 C   0  0  1  0  0  3  0  0  0  0  0  0
    1.7400   -2.7040    8.6290 C   0  0  0  0  0  2  0  0  0  0  0  0
    2.0370   -3.4500    9.9260 C   0  0  0  0  0  2  0  0  0  0  0  0
    3.2310   -4.3830    9.7730 C   0  0  0  0  0  2  0  0  0  0  0  0
    4.4680   -3.6340    9.2880 C   0  0  0  0  0  2  0  0  0  0  0  0
    4.1930   -2.8590    7.9820 C   0  0  2  0  0  3  0  0  0  0  0  0
    5.6480   -3.8000    5.6010 C   0  0  0  0  0  0  0  0  0  0  0  0
    4.6740   -4.7000    6.0460 C   0  0  0  0  0  3  0  0  0  0  0  0
    4.0740   -5.5710    5.1350 C   0  0  0  0  0  3  0  0  0  0  0  0
    4.4490   -5.5340    3.7910 C   0  0  0  0  0  0  0  0  0  0  0  0
    5.4610   -4.6720    3.3570 C   0  0  0  0  0  3  0  0  0  0  0  0
    6.0660   -3.8030    4.2660 C   0  0  0  0  0  3  0  0  0  0  0  0
    3.8390   -6.4300    2.9420 O   0  0  0  0  0  0  0  0  0  0  0  0
    4.4410   -6.6370    1.7210 C   0  0  0  0  0  0  0  0  0  0  0  0
    4.5180   -5.6480    0.7370 C   0  0  0  0  0  3  0  0  0  0  0  0
    5.1090   -5.9380   -0.4930 C   0  0  0  0  0  3  0  0  0  0  0  0
    5.6070   -7.2170   -0.7440 C   0  0  0  0  0  3  0  0  0  0  0  0
    5.5100   -8.2110    0.2310 C   0  0  0  0  0  3  0  0  0  0  0  0
    4.9190   -7.9230    1.4620 C   0  0  0  0  0  3  0  0  0  0  0  0
    7.6470    2.3710    8.7490 C   0  0  0  0  0  0  0  0  0  0  0  0
    7.9220    2.7880    9.9150 O   0  0  0  0  0  1  0  0  0  0  0  0
    7.9280    2.9550    7.6560 O   0  0  0  0  0  0  0  0  0  0  0  0
  1  4  1  0  0  0  0
  2  1  1  0  0  0  0
  3  2  2  0  0  0  0
  4  5  2  0  0  0  0
  5  6  1  0  0  0  0
  7 29  1  0  0  0  0
  7  6  2  0  0  0  0
  8  4  1  0  0  0  0
  8  7  1  0  0  0  0
 10  9  1  6  0  0  0
 10 11  1  0  0  0  0
 11 12  1  0  0  0  0
 13 12  1  0  0  0  0
 14 13  1  0  0  0  0
 15  1  1  1  0  0  0
 15 10  1  0  0  0  0
 15 14  1  0  0  0  0
 16 17  1  0  0  0  0
 16  2  1  0  0  0  0
 18 17  2  0  0  0  0
 19 18  1  0  0  0  0
 20 19  2  0  0  0  0
 20 21  1  0  0  0  0
 21 16  2  0  0  0  0
 22 19  1  0  0  0  0
 23 22  1  0  0  0  0
 24 23  2  0  0  0  0
 25 24  1  0  0  0  0
 26 25  2  0  0  0  0
 26 27  1  0  0  0  0
 27 28  2  0  0  0  0
 28 23  1  0  0  0  0
 29 30  1  0  0  0  0
 31 29  2  0  0  0  0
M  END
>  <minimizedAffinity>
-4.93469572

$$$$
