
 OpenBabel09122222393D

 31 34  0  0  1  0  0  0  0  0999 V2000
    4.1930   -4.7270    5.5020 N   0  0  0  0  0  0  0  0  0  0  0  0
    2.8830   -4.3220    5.8060 C   0  0  0  0  0  0  0  0  0  0  0  0
    2.4830   -3.1730    5.9820 O   0  0  0  0  0  0  0  0  0  0  0  0
    5.2490   -3.8540    5.8160 C   0  0  0  0  0  0  0  0  0  0  0  0
    6.4180   -3.8730    5.2090 N   0  0  0  0  0  0  0  0  0  0  0  0
    7.2810   -2.9860    5.8320 C   0  0  0  0  0  3  0  0  0  0  0  0
    6.7730   -2.3390    6.9350 C   0  0  0  0  0  0  0  0  0  0  0  0
    5.1570   -2.8230    7.1890 S   0  0  0  0  0  0  0  0  0  0  0  0
    4.5330   -4.5070    2.4540 C   0  0  0  0  0  1  0  0  0  0  0  0
    3.9310   -5.7330    3.1460 C   0  0  1  0  0  3  0  0  0  0  0  0
    4.2560   -6.9940    2.3240 C   0  0  0  0  0  2  0  0  0  0  0  0
    3.7090   -8.2590    2.9790 C   0  0  0  0  0  2  0  0  0  0  0  0
    4.2240   -8.4180    4.4030 C   0  0  0  0  0  2  0  0  0  0  0  0
    3.9070   -7.1920    5.2530 C   0  0  0  0  0  2  0  0  0  0  0  0
    4.4380   -5.8940    4.6080 C   0  0  2  0  0  3  0  0  0  0  0  0
    1.8330   -5.3640    5.8750 C   0  0  0  0  0  0  0  0  0  0  0  0
    1.7470   -6.1690    7.0170 C   0  0  0  0  0  3  0  0  0  0  0  0
    0.7600   -7.1530    7.0920 C   0  0  0  0  0  3  0  0  0  0  0  0
   -0.1310   -7.3230    6.0320 C   0  0  0  0  0  0  0  0  0  0  0  0
   -0.0100   -6.5560    4.8690 C   0  0  0  0  0  3  0  0  0  0  0  0
    0.9780   -5.5740    4.7880 C   0  0  0  0  0  3  0  0  0  0  0  0
   -1.0710   -8.3230    6.1520 O   0  0  0  0  0  0  0  0  0  0  0  0
   -2.2210   -8.0150    6.8420 C   0  0  0  0  0  0  0  0  0  0  0  0
   -3.0760   -6.9770    6.4630 C   0  0  0  0  0  3  0  0  0  0  0  0
   -4.2060   -6.6940    7.2320 C   0  0  0  0  0  3  0  0  0  0  0  0
   -4.4710   -7.4360    8.3830 C   0  0  0  0  0  3  0  0  0  0  0  0
   -3.6040   -8.4570    8.7740 C   0  0  0  0  0  3  0  0  0  0  0  0
   -2.4730   -8.7420    8.0070 C   0  0  0  0  0  3  0  0  0  0  0  0
    7.5480   -1.3920    7.7590 C   0  0  0  0  0  0  0  0  0  0  0  0
    7.9380   -1.7870    8.8990 O   0  0  0  0  0  1  0  0  0  0  0  0
    7.7700   -0.2520    7.2420 O   0  0  0  0  0  0  0  0  0  0  0  0
  1  2  1  0  0  0  0
  1  4  1  0  0  0  0
  2 16  1  0  0  0  0
  2  3  2  0  0  0  0
  4  8  1  0  0  0  0
  5  4  2  0  0  0  0
  5  6  1  0  0  0  0
  6  7  2  0  0  0  0
  7  8  1  0  0  0  0
  7 29  1  0  0  0  0
 10  9  1  6  0  0  0
 10 15  1  0  0  0  0
 11 12  1  0  0  0  0
 11 10  1  0  0  0  0
 12 13  1  0  0  0  0
 13 14  1  0  0  0  0
 15 14  1  0  0  0  0
 15  1  1  1  0  0  0
 16 17  1  0  0  0  0
 17 18  2  0  0  0  0
 19 22  1  0  0  0  0
 19 18  1  0  0  0  0
 20 19  2  0  0  0  0
 21 20  1  0  0  0  0
 21 16  2  0  0  0  0
 22 23  1  0  0  0  0
 23 28  1  0  0  0  0
 24 23  2  0  0  0  0
 24 25  1  0  0  0  0
 25 26  2  0  0  0  0
 26 27  1  0  0  0  0
 28 27  2  0  0  0  0
 29 30  1  0  0  0  0
 31 29  2  0  0  0  0
M  END
>  <minimizedAffinity>
-5.35350704

$$$$
