
 OpenBabel09122222393D

 22 24  0  0  0  0  0  0  0  0999 V2000
    9.8980    2.3020    3.0560 C   0  0  0  0  0  0  0  0  0  0  0  0
    9.8240    1.0090    3.2870 N   0  0  0  0  0  0  0  0  0  0  0  0
    9.8280    0.4020    2.0560 C   0  0  0  0  0  0  0  0  0  0  0  0
    9.7550   -0.9630    1.7360 C   0  0  0  0  0  3  0  0  0  0  0  0
    9.7750   -1.3720    0.3880 C   0  0  0  0  0  0  0  0  0  0  0  0
    9.8680   -0.3910   -0.6130 C   0  0  0  0  0  3  0  0  0  0  0  0
    9.9430    0.9750   -0.3150 C   0  0  0  0  0  3  0  0  0  0  0  0
    9.9220    1.3470    1.0350 C   0  0  0  0  0  0  0  0  0  0  0  0
    9.9800    2.5610    1.6960 N   0  0  0  0  0  0  0  0  0  0  0  0
   10.1010    3.8790    1.0740 C   0  0  0  0  0  3  0  0  0  0  0  0
    9.1270    4.0790   -0.1000 C   0  0  0  0  0  2  0  0  0  0  0  0
    9.3210    5.4450   -0.7540 C   0  0  0  0  0  2  0  0  0  0  0  0
    9.2270    6.5770    0.2650 C   0  0  0  0  0  2  0  0  0  0  0  0
   10.2090    6.3840    1.4170 C   0  0  0  0  0  2  0  0  0  0  0  0
   10.0250    5.0270    2.0940 C   0  0  0  0  0  2  0  0  0  0  0  0
   10.0560    1.7720    5.9880 C   0  0  0  0  0  1  0  0  0  0  0  0
   10.0070    3.1290    5.3350 C   0  0  0  0  0  0  0  0  0  0  0  0
   10.0730    4.2850    6.2970 C   0  0  0  0  0  1  0  0  0  0  0  0
    9.9330    3.3490    4.0080 C   0  0  0  0  0  3  0  0  0  0  0  0
    9.6970   -2.8410    0.0210 C   0  0  0  0  0  0  0  0  0  0  0  0
    9.1970   -3.6320    0.8820 O   0  0  0  0  0  1  0  0  0  0  0  0
   10.1390   -3.1750   -1.1240 O   0  0  0  0  0  0  0  0  0  0  0  0
  1  2  2  0  0  0  0
  1 19  1  0  0  0  0
  3  2  1  0  0  0  0
  4  3  1  0  0  0  0
  5  4  2  0  0  0  0
  6  7  2  0  0  0  0
  6  5  1  0  0  0  0
  7  8  1  0  0  0  0
  8  9  1  0  0  0  0
  8  3  2  0  0  0  0
  9  1  1  0  0  0  0
 10  9  1  0  0  0  0
 10 15  1  0  0  0  0
 11 10  1  0  0  0  0
 12 11  1  0  0  0  0
 12 13  1  0  0  0  0
 13 14  1  0  0  0  0
 14 15  1  0  0  0  0
 17 16  1  0  0  0  0
 17 18  1  0  0  0  0
 19 17  2  0  0  0  0
 20  5  1  0  0  0  0
 20 21  1  0  0  0  0
 22 20  2  0  0  0  0
M  END
>  <minimizedAffinity>
-3.57355785

$$$$
