
 OpenBabel09122222393D

 22 24  0  0  0  0  0  0  0  0999 V2000
    7.5460   -4.3320    1.9970 C   0  0  0  0  0  0  0  0  0  0  0  0
    6.3750   -4.9220    1.9050 N   0  0  0  0  0  0  0  0  0  0  0  0
    5.6690   -4.5420    3.0190 C   0  0  0  0  0  0  0  0  0  0  0  0
    4.3700   -4.8990    3.4150 C   0  0  0  0  0  3  0  0  0  0  0  0
    3.8330   -4.3850    4.6120 C   0  0  0  0  0  0  0  0  0  0  0  0
    4.6230   -3.5210    5.3890 C   0  0  0  0  0  3  0  0  0  0  0  0
    5.9200   -3.1530    5.0110 C   0  0  0  0  0  3  0  0  0  0  0  0
    6.4220   -3.6790    3.8140 C   0  0  0  0  0  0  0  0  0  0  0  0
    7.6190   -3.5440    3.1350 N   0  0  0  0  0  0  0  0  0  0  0  0
    8.7580   -2.7240    3.5470 C   0  0  0  0  0  3  0  0  0  0  0  0
    8.7180   -1.3050    2.9570 C   0  0  0  0  0  2  0  0  0  0  0  0
    9.9500   -0.4990    3.3670 C   0  0  0  0  0  2  0  0  0  0  0  0
   10.1350   -0.4830    4.8820 C   0  0  0  0  0  2  0  0  0  0  0  0
   10.1930   -1.8950    5.4590 C   0  0  0  0  0  2  0  0  0  0  0  0
    8.9640   -2.7150    5.0700 C   0  0  0  0  0  2  0  0  0  0  0  0
    7.1350   -4.9560   -0.8930 C   0  0  0  0  0  1  0  0  0  0  0  0
    8.4580   -4.6840   -0.2250 C   0  0  0  0  0  0  0  0  0  0  0  0
    9.6420   -4.7180   -1.1540 C   0  0  0  0  0  1  0  0  0  0  0  0
    8.6250   -4.4060    1.0820 C   0  0  0  0  0  3  0  0  0  0  0  0
    2.4330   -4.7580    5.0570 C   0  0  0  0  0  0  0  0  0  0  0  0
    2.2520   -4.9750    6.2970 O   0  0  0  0  0  1  0  0  0  0  0  0
    1.5400   -4.8280    4.1550 O   0  0  0  0  0  0  0  0  0  0  0  0
  1  9  1  0  0  0  0
  2  1  2  0  0  0  0
  2  3  1  0  0  0  0
  3  4  2  0  0  0  0
  3  8  1  0  0  0  0
  4  5  1  0  0  0  0
  5 20  1  0  0  0  0
  5  6  2  0  0  0  0
  7  6  1  0  0  0  0
  8  7  2  0  0  0  0
  9 10  1  0  0  0  0
  9  8  1  0  0  0  0
 10 15  1  0  0  0  0
 11 12  1  0  0  0  0
 11 10  1  0  0  0  0
 12 13  1  0  0  0  0
 13 14  1  0  0  0  0
 15 14  1  0  0  0  0
 16 17  1  0  0  0  0
 17 19  2  0  0  0  0
 18 17  1  0  0  0  0
 19  1  1  0  0  0  0
 20 21  1  0  0  0  0
 22 20  2  0  0  0  0
M  END
>  <minimizedAffinity>
-3.06170654

$$$$
