
 OpenBabel09122222393D

 22 24  0  0  0  0  0  0  0  0999 V2000
   10.1550    8.4690   -1.2000 C   0  0  0  0  0  0  0  0  0  0  0  0
   10.1670    7.1870   -1.4950 N   0  0  0  0  0  0  0  0  0  0  0  0
   10.1520    6.5210   -0.2960 C   0  0  0  0  0  0  0  0  0  0  0  0
   10.1690    5.1400   -0.0440 C   0  0  0  0  0  3  0  0  0  0  0  0
   10.1490    4.6650    1.2820 C   0  0  0  0  0  0  0  0  0  0  0  0
   10.1160    5.5980    2.3310 C   0  0  0  0  0  3  0  0  0  0  0  0
   10.0990    6.9800    2.1020 C   0  0  0  0  0  3  0  0  0  0  0  0
   10.1160    7.4170    0.7720 C   0  0  0  0  0  0  0  0  0  0  0  0
   10.1040    8.6640    0.1720 N   0  0  0  0  0  0  0  0  0  0  0  0
   10.0530    9.9530    0.8600 C   0  0  0  0  0  3  0  0  0  0  0  0
    8.8340   10.7990    0.4570 C   0  0  0  0  0  2  0  0  0  0  0  0
    8.8450   12.1570    1.1560 C   0  0  0  0  0  2  0  0  0  0  0  0
    8.9620   12.0100    2.6710 C   0  0  0  0  0  2  0  0  0  0  0  0
   10.1850   11.1870    3.0660 C   0  0  0  0  0  2  0  0  0  0  0  0
   10.1880    9.8180    2.3850 C   0  0  0  0  0  2  0  0  0  0  0  0
    8.7580    8.3530   -3.8340 C   0  0  0  0  0  1  0  0  0  0  0  0
    9.5260    9.5300   -3.2910 C   0  0  0  0  0  0  0  0  0  0  0  0
    9.5350   10.7360   -4.1900 C   0  0  0  0  0  1  0  0  0  0  0  0
   10.1530    9.5620   -2.0990 C   0  0  0  0  0  3  0  0  0  0  0  0
   10.1660    3.1780    1.5750 C   0  0  0  0  0  0  0  0  0  0  0  0
   10.1370    2.3870    0.5800 O   0  0  0  0  0  0  0  0  0  0  0  0
   10.2080    2.8300    2.7970 O   0  0  0  0  0  1  0  0  0  0  0  0
  1  9  1  0  0  0  0
  2  1  2  0  0  0  0
  2  3  1  0  0  0  0
  3  4  2  0  0  0  0
  3  8  1  0  0  0  0
  4  5  1  0  0  0  0
  5 20  1  0  0  0  0
  5  6  2  0  0  0  0
  7  6  1  0  0  0  0
  8  7  2  0  0  0  0
  9  8  1  0  0  0  0
  9 10  1  0  0  0  0
 10 15  1  0  0  0  0
 11 10  1  0  0  0  0
 11 12  1  0  0  0  0
 12 13  1  0  0  0  0
 13 14  1  0  0  0  0
 15 14  1  0  0  0  0
 16 17  1  0  0  0  0
 17 19  2  0  0  0  0
 18 17  1  0  0  0  0
 19  1  1  0  0  0  0
 20 22  1  0  0  0  0
 21 20  2  0  0  0  0
M  END
>  <minimizedAffinity>
-3.97946262

$$$$
