
 OpenBabel09122222393D

 22 24  0  0  0  0  0  0  0  0999 V2000
    9.7860    7.8440   -0.0530 C   0  0  0  0  0  0  0  0  0  0  0  0
    9.4600    7.4700   -1.2710 N   0  0  0  0  0  0  0  0  0  0  0  0
    9.2790    8.6270   -1.9880 C   0  0  0  0  0  0  0  0  0  0  0  0
    8.9110    8.7930   -3.3320 C   0  0  0  0  0  3  0  0  0  0  0  0
    8.7810   10.0880   -3.8720 C   0  0  0  0  0  0  0  0  0  0  0  0
    9.0230   11.1920   -3.0390 C   0  0  0  0  0  3  0  0  0  0  0  0
    9.3910   11.0480   -1.6950 C   0  0  0  0  0  3  0  0  0  0  0  0
    9.5140    9.7470   -1.1920 C   0  0  0  0  0  0  0  0  0  0  0  0
    9.8520    9.2250    0.0440 N   0  0  0  0  0  0  0  0  0  0  0  0
   10.2090    9.9910    1.2370 C   0  0  0  0  0  3  0  0  0  0  0  0
    9.7690   11.4630    1.1580 C   0  0  0  0  0  2  0  0  0  0  0  0
   10.2060   12.2400    2.3990 C   0  0  0  0  0  2  0  0  0  0  0  0
    9.7270   11.5680    3.6830 C   0  0  0  0  0  2  0  0  0  0  0  0
   10.1840   10.1140    3.7650 C   0  0  0  0  0  2  0  0  0  0  0  0
    9.7470    9.3150    2.5380 C   0  0  0  0  0  2  0  0  0  0  0  0
    9.2360    4.9110   -0.0790 C   0  0  0  0  0  1  0  0  0  0  0  0
    9.8430    5.6870    1.0600 C   0  0  0  0  0  0  0  0  0  0  0  0
   10.2090    4.8520    2.2570 C   0  0  0  0  0  1  0  0  0  0  0  0
   10.0820    7.0130    1.0550 C   0  0  0  0  0  3  0  0  0  0  0  0
    8.3850   10.2890   -5.3210 C   0  0  0  0  0  0  0  0  0  0  0  0
    8.2010   11.4820   -5.7170 O   0  0  0  0  0  1  0  0  0  0  0  0
    8.2650    9.2440   -6.0370 O   0  0  0  0  0  0  0  0  0  0  0  0
  1  9  1  0  0  0  0
  1 19  1  0  0  0  0
  2  1  2  0  0  0  0
  3  2  1  0  0  0  0
  3  8  1  0  0  0  0
  4  3  2  0  0  0  0
  5  4  1  0  0  0  0
  5  6  2  0  0  0  0
  6  7  1  0  0  0  0
  7  8  2  0  0  0  0
  8  9  1  0  0  0  0
  9 10  1  0  0  0  0
 10 15  1  0  0  0  0
 11 10  1  0  0  0  0
 11 12  1  0  0  0  0
 12 13  1  0  0  0  0
 13 14  1  0  0  0  0
 15 14  1  0  0  0  0
 16 17  1  0  0  0  0
 17 18  1  0  0  0  0
 19 17  2  0  0  0  0
 20  5  1  0  0  0  0
 21 20  1  0  0  0  0
 22 20  2  0  0  0  0
M  END
>  <minimizedAffinity>
-2.1190834

$$$$
