
 OpenBabel09122222393D

 22 24  0  0  0  0  0  0  0  0999 V2000
   10.0590    8.3140    0.6170 C   0  0  0  0  0  0  0  0  0  0  0  0
   10.1920    7.6970    1.7720 N   0  0  0  0  0  0  0  0  0  0  0  0
   10.1140    6.3550    1.4970 C   0  0  0  0  0  0  0  0  0  0  0  0
   10.1830    5.2610    2.3740 C   0  0  0  0  0  3  0  0  0  0  0  0
   10.0770    3.9490    1.8720 C   0  0  0  0  0  0  0  0  0  0  0  0
    9.9010    3.7680    0.4900 C   0  0  0  0  0  3  0  0  0  0  0  0
    9.8300    4.8450   -0.4010 C   0  0  0  0  0  3  0  0  0  0  0  0
    9.9410    6.1360    0.1310 C   0  0  0  0  0  0  0  0  0  0  0  0
    9.9230    7.4050   -0.4200 N   0  0  0  0  0  0  0  0  0  0  0  0
    9.7790    7.7290   -1.8390 C   0  0  0  0  0  3  0  0  0  0  0  0
    8.3840    7.3920   -2.3920 C   0  0  0  0  0  2  0  0  0  0  0  0
    8.2920    7.6960   -3.8870 C   0  0  0  0  0  2  0  0  0  0  0  0
    8.6970    9.1350   -4.1950 C   0  0  0  0  0  2  0  0  0  0  0  0
   10.0900    9.4570   -3.6620 C   0  0  0  0  0  2  0  0  0  0  0  0
   10.2010    9.1710   -2.1650 C   0  0  0  0  0  2  0  0  0  0  0  0
    9.0200   10.2820    2.6060 C   0  0  0  0  0  1  0  0  0  0  0  0
    9.6180   10.6120    1.2630 C   0  0  0  0  0  0  0  0  0  0  0  0
    9.6970   12.0850    0.9620 C   0  0  0  0  0  1  0  0  0  0  0  0
   10.0800    9.7090    0.3770 C   0  0  0  0  0  3  0  0  0  0  0  0
   10.1500    2.7540    2.8020 C   0  0  0  0  0  0  0  0  0  0  0  0
   10.2070    2.9880    4.0500 O   0  0  0  0  0  1  0  0  0  0  0  0
   10.1490    1.6020    2.2630 O   0  0  0  0  0  0  0  0  0  0  0  0
  1  2  2  0  0  0  0
  3  2  1  0  0  0  0
  3  4  1  0  0  0  0
  5  4  2  0  0  0  0
  5 20  1  0  0  0  0
  6  5  1  0  0  0  0
  7  8  1  0  0  0  0
  7  6  2  0  0  0  0
  8  3  2  0  0  0  0
  9  8  1  0  0  0  0
  9  1  1  0  0  0  0
 10  9  1  0  0  0  0
 11 10  1  0  0  0  0
 12 11  1  0  0  0  0
 13 12  1  0  0  0  0
 13 14  1  0  0  0  0
 14 15  1  0  0  0  0
 15 10  1  0  0  0  0
 17 16  1  0  0  0  0
 18 17  1  0  0  0  0
 19  1  1  0  0  0  0
 19 17  2  0  0  0  0
 20 21  1  0  0  0  0
 22 20  2  0  0  0  0
M  END
>  <minimizedAffinity>
-2.2731905

$$$$
