
 OpenBabel09122222393D

 46 49  0  0  1  0  0  0  0  0999 V2000
    2.5380   -4.7220    8.8450 C   0  0  2  0  0  3  0  0  0  0  0  0
    1.9010   -3.5550    8.9110 N   0  0  0  0  0  0  0  0  0  0  0  0
    2.4280   -2.4030    9.9590 S   0  0  0  0  0  0  0  0  0  0  0  0
    2.3630   -1.1060    9.3210 O   0  0  0  0  0  0  0  0  0  0  0  0
    1.8940   -2.5910   11.2900 O   0  0  0  0  0  0  0  0  0  0  0  0
    4.1390   -2.8520   10.0380 C   0  0  0  0  0  0  0  0  0  0  0  0
    5.5300   -1.8740    9.4600 C   0  0  0  0  0  3  0  0  0  0  0  0
    7.1590   -2.6410    9.2660 C   0  0  0  0  0  0  0  0  0  0  0  0
    7.4030   -4.3820    9.7360 C   0  0  0  0  0  3  0  0  0  0  0  0
    5.9510   -5.4080   10.1930 C   0  0  0  0  0  3  0  0  0  0  0  0
    4.3390   -4.6190   10.3810 C   0  0  0  0  0  0  0  0  0  0  0  0
    3.1230   -5.3150   10.0260 N   0  0  0  0  0  0  0  0  0  0  0  0
    1.6150   -3.1290    8.0410 H   0  0  0  0  0  0  0  0  0  0  0  0
    3.2220   -6.3290   10.0270 H   0  0  0  0  0  0  0  0  0  0  0  0
    2.3490   -6.4610    6.2460 N   0  0  0  0  0  0  0  0  0  0  0  0
    3.5340   -6.2490    7.2070 C   0  0  0  0  0  0  0  0  0  0  0  0
    4.2320   -7.0750    7.7830 O   0  0  0  0  0  0  0  0  0  0  0  0
    3.5260   -4.8100    7.7070 C   0  0  1  0  0  3  0  0  0  0  0  0
    3.6200   -3.9310    6.7000 C   0  0  1  0  0  3  0  0  0  0  0  0
    3.8630   -4.4740    5.3650 C   0  0  1  0  0  3  0  0  0  0  0  0
    4.7010   -3.8380    4.4460 C   0  0  0  0  0  3  0  0  0  0  0  0
    4.9450   -4.4470    3.2230 C   0  0  0  0  0  3  0  0  0  0  0  0
    4.3540   -5.6730    2.9740 C   0  0  0  0  0  3  0  0  0  0  0  0
    3.5310   -6.3080    3.8400 N   0  0  0  0  0  0  0  0  0  0  0  0
    3.2370   -5.7070    5.0230 C   0  0  0  0  0  0  0  0  0  0  0  0
    3.2610   -2.6080    6.8310 O   0  0  0  0  0  0  0  0  0  0  0  0
    3.3150   -2.1700    5.9610 H   0  0  0  0  0  0  0  0  0  0  0  0
    0.4250   -7.3280    6.2880 C   0  0  0  0  0  1  0  0  0  0  0  0
   -1.0520   -7.0610    5.3400 C   0  0  0  0  0  2  0  0  0  0  0  0
   -3.3730   -6.4000    6.2520 C   0  0  0  0  0  1  0  0  0  0  0  0
   -2.3310   -7.5090    6.1020 C   0  0  0  0  0  3  0  0  0  0  0  0
   -2.9630   -8.7020    5.3750 C   0  0  0  0  0  1  0  0  0  0  0  0
    8.2230   -1.8270    8.7810 N   0  0  0  0  0  0  0  0  0  0  0  0
    9.1230   -2.0560    9.2000 H   0  0  0  0  0  0  0  0  0  0  0  0
    8.4190   -1.6810    7.1300 S   0  0  0  0  0  0  0  0  0  0  0  0
    9.7750   -2.0800    6.8400 O   0  0  0  0  0  0  0  0  0  0  0  0
    7.2990   -2.2980    6.4620 O   0  0  0  0  0  0  0  0  0  0  0  0
    8.2940   -0.0360    6.8950 N   0  0  0  0  0  0  0  0  0  0  0  0
    8.2630    0.1550    5.8930 H   0  0  0  0  0  0  0  0  0  0  0  0
    9.2760    0.8090    7.5890 C   0  0  0  0  0  2  0  0  0  0  0  0
    8.6370    1.9470    8.3420 C   0  0  0  0  0  0  0  0  0  0  0  0
    8.9490    3.2780    8.0290 C   0  0  0  0  0  3  0  0  0  0  0  0
    8.3670    4.3280    8.7430 C   0  0  0  0  0  3  0  0  0  0  0  0
    7.4730    4.0590    9.7780 C   0  0  0  0  0  3  0  0  0  0  0  0
    7.1650    2.7410   10.1050 C   0  0  0  0  0  3  0  0  0  0  0  0
    7.7460    1.6900    9.3940 C   0  0  0  0  0  3  0  0  0  0  0  0
  1  2  1  1  0  0  0
  1 12  1  0  0  0  0
  2  3  1  0  0  0  0
  3  6  1  0  0  0  0
  3  5  2  0  0  0  0
  4  3  2  0  0  0  0
  6 11  1  0  0  0  0
  7  6  2  0  0  0  0
  8  7  1  0  0  0  0
  8  9  2  0  0  0  0
  9 10  1  0  0  0  0
 10 11  2  0  0  0  0
 12 14  1  0  0  0  0
 12 11  1  0  0  0  0
 13  2  1  0  0  0  0
 15 16  1  0  0  0  0
 16 17  2  0  0  0  0
 18 16  1  6  0  0  0
 18  1  1  0  0  0  0
 19 26  1  6  0  0  0
 19 18  1  0  0  0  0
 20 21  1  1  0  0  0
 20 19  1  0  0  0  0
 22 21  2  0  0  0  0
 23 22  1  0  0  0  0
 23 24  2  0  0  0  0
 24 25  1  0  0  0  0
 25 20  1  0  0  0  0
 25 15  2  0  0  0  0
 27 26  1  0  0  0  0
 29 31  1  0  0  0  0
 29 28  1  0  0  0  0
 31 30  1  0  0  0  0
 32 31  1  0  0  0  0
 33 34  1  0  0  0  0
 33  8  1  0  0  0  0
 35 33  1  0  0  0  0
 36 35  2  0  0  0  0
 37 35  2  0  0  0  0
 38 35  1  0  0  0  0
 38 40  1  0  0  0  0
 39 38  1  0  0  0  0
 40 41  1  0  0  0  0
 41 46  1  0  0  0  0
 42 41  2  0  0  0  0
 42 43  1  0  0  0  0
 43 44  2  0  0  0  0
 44 45  1  0  0  0  0
 46 45  2  0  0  0  0
M  END
>  <minimizedAffinity>
-7.99566936

$$$$
