
 OpenBabel09122222393D

 46 49  0  0  1  0  0  0  0  0999 V2000
    2.4900   -4.7020    7.7990 C   0  0  2  0  0  3  0  0  0  0  0  0
    1.7770   -3.6280    7.4660 N   0  0  0  0  0  0  0  0  0  0  0  0
    2.2800   -2.1400    7.9540 S   0  0  0  0  0  0  0  0  0  0  0  0
    2.0890   -1.1910    6.8780 O   0  0  0  0  0  0  0  0  0  0  0  0
    1.8340   -1.8260    9.2940 O   0  0  0  0  0  0  0  0  0  0  0  0
    4.0190   -2.4490    8.0640 C   0  0  0  0  0  0  0  0  0  0  0  0
    5.3050   -1.7080    7.0520 C   0  0  0  0  0  3  0  0  0  0  0  0
    6.9700   -2.4190    7.0370 C   0  0  0  0  0  0  0  0  0  0  0  0
    7.3610   -3.8340    8.1130 C   0  0  0  0  0  3  0  0  0  0  0  0
    6.0120   -4.6690    9.0370 C   0  0  0  0  0  3  0  0  0  0  0  0
    4.3610   -3.9390    9.0360 C   0  0  0  0  0  0  0  0  0  0  0  0
    3.1790   -4.7700    9.0670 N   0  0  0  0  0  0  0  0  0  0  0  0
    1.4150   -3.5810    6.5250 H   0  0  0  0  0  0  0  0  0  0  0  0
    3.3490   -5.7010    9.4460 H   0  0  0  0  0  0  0  0  0  0  0  0
    2.3010   -7.3300    6.1050 N   0  0  0  0  0  0  0  0  0  0  0  0
    3.5150   -6.6940    6.8060 C   0  0  0  0  0  0  0  0  0  0  0  0
    4.3100   -7.1870    7.5970 O   0  0  0  0  0  0  0  0  0  0  0  0
    3.4180   -5.1770    6.7070 C   0  0  1  0  0  3  0  0  0  0  0  0
    3.3830   -4.7600    5.4340 C   0  0  1  0  0  3  0  0  0  0  0  0
    3.5960   -5.7710    4.3990 C   0  0  1  0  0  3  0  0  0  0  0  0
    4.3260   -5.5030    3.2390 C   0  0  0  0  0  3  0  0  0  0  0  0
    4.5520   -6.5290    2.3320 C   0  0  0  0  0  3  0  0  0  0  0  0
    4.0500   -7.7840    2.6290 C   0  0  0  0  0  3  0  0  0  0  0  0
    3.3320   -8.0710    3.7380 N   0  0  0  0  0  0  0  0  0  0  0  0
    3.0560   -7.0710    4.6160 C   0  0  0  0  0  0  0  0  0  0  0  0
    2.9240   -3.5140    5.0700 O   0  0  0  0  0  0  0  0  0  0  0  0
    2.8940   -3.4510    4.0970 H   0  0  0  0  0  0  0  0  0  0  0  0
    0.4600   -8.2120    6.6390 C   0  0  0  0  0  1  0  0  0  0  0  0
   -1.1340   -7.5500    7.0530 C   0  0  0  0  0  2  0  0  0  0  0  0
   -2.0150   -8.0510    4.6800 C   0  0  0  0  0  1  0  0  0  0  0  0
   -1.8940   -7.0200    5.8040 C   0  0  0  0  0  3  0  0  0  0  0  0
   -3.2950   -6.5600    6.2210 C   0  0  0  0  0  1  0  0  0  0  0  0
    7.9460   -1.8080    6.1990 N   0  0  0  0  0  0  0  0  0  0  0  0
    7.5520   -1.4300    5.3380 H   0  0  0  0  0  0  0  0  0  0  0  0
    8.9660   -0.6710    6.8700 S   0  0  0  0  0  0  0  0  0  0  0  0
    9.7740   -1.3660    7.8420 O   0  0  0  0  0  0  0  0  0  0  0  0
    9.5680    0.1090    5.8170 O   0  0  0  0  0  0  0  0  0  0  0  0
    7.9080    0.3270    7.6850 N   0  0  0  0  0  0  0  0  0  0  0  0
    7.8700    1.2290    7.2110 H   0  0  0  0  0  0  0  0  0  0  0  0
    8.1160    0.4720    9.1330 C   0  0  0  0  0  2  0  0  0  0  0  0
    6.8990    1.0020    9.8470 C   0  0  0  0  0  0  0  0  0  0  0  0
    6.9050    2.2820   10.4190 C   0  0  0  0  0  3  0  0  0  0  0  0
    5.7800    2.7610   11.0950 C   0  0  0  0  0  3  0  0  0  0  0  0
    4.6430    1.9640   11.2090 C   0  0  0  0  0  3  0  0  0  0  0  0
    4.6290    0.6870   10.6550 C   0  0  0  0  0  3  0  0  0  0  0  0
    5.7520    0.2060    9.9800 C   0  0  0  0  0  3  0  0  0  0  0  0
  1  2  1  6  0  0  0
  1 12  1  0  0  0  0
  2  3  1  0  0  0  0
  3  6  1  0  0  0  0
  3  5  2  0  0  0  0
  4  3  2  0  0  0  0
  6 11  1  0  0  0  0
  7  6  2  0  0  0  0
  8  7  1  0  0  0  0
  8  9  2  0  0  0  0
  9 10  1  0  0  0  0
 11 10  2  0  0  0  0
 11 12  1  0  0  0  0
 12 14  1  0  0  0  0
 13  2  1  0  0  0  0
 15 16  1  0  0  0  0
 16 17  2  0  0  0  0
 18 16  1  6  0  0  0
 18  1  1  0  0  0  0
 19 26  1  6  0  0  0
 19 18  1  0  0  0  0
 20 21  1  1  0  0  0
 20 25  1  0  0  0  0
 20 19  1  0  0  0  0
 22 23  1  0  0  0  0
 22 21  2  0  0  0  0
 23 24  2  0  0  0  0
 24 25  1  0  0  0  0
 25 15  2  0  0  0  0
 27 26  1  0  0  0  0
 28 29  1  0  0  0  0
 30 31  1  0  0  0  0
 31 32  1  0  0  0  0
 31 29  1  0  0  0  0
 33 35  1  0  0  0  0
 33  8  1  0  0  0  0
 34 33  1  0  0  0  0
 35 38  1  0  0  0  0
 35 36  2  0  0  0  0
 37 35  2  0  0  0  0
 38 40  1  0  0  0  0
 39 38  1  0  0  0  0
 40 41  1  0  0  0  0
 41 46  2  0  0  0  0
 41 42  1  0  0  0  0
 42 43  2  0  0  0  0
 43 44  1  0  0  0  0
 45 44  2  0  0  0  0
 46 45  1  0  0  0  0
M  END
>  <minimizedAffinity>
-7.89780617

$$$$
