
 OpenBabel09122222393D

 46 49  0  0  1  0  0  0  0  0999 V2000
    5.6320   -3.0120    6.8280 C   0  0  2  0  0  3  0  0  0  0  0  0
    6.6670   -3.5070    7.5040 N   0  0  0  0  0  0  0  0  0  0  0  0
    6.7900   -3.2200    9.1190 S   0  0  0  0  0  0  0  0  0  0  0  0
    7.2410   -4.4210    9.7870 O   0  0  0  0  0  0  0  0  0  0  0  0
    7.4170   -1.9470    9.4010 O   0  0  0  0  0  0  0  0  0  0  0  0
    5.0730   -3.0300    9.5060 C   0  0  0  0  0  0  0  0  0  0  0  0
    4.0850   -4.1080   10.5500 C   0  0  0  0  0  3  0  0  0  0  0  0
    2.2790   -3.9870   10.5250 C   0  0  0  0  0  0  0  0  0  0  0  0
    1.4690   -2.7160    9.5040 C   0  0  0  0  0  3  0  0  0  0  0  0
    2.4750   -1.7150    8.3400 C   0  0  0  0  0  3  0  0  0  0  0  0
    4.2740   -1.8530    8.3850 C   0  0  0  0  0  0  0  0  0  0  0  0
    5.0610   -1.7320    7.1790 N   0  0  0  0  0  0  0  0  0  0  0  0
    6.9510   -4.4530    7.2960 H   0  0  0  0  0  0  0  0  0  0  0  0
    4.5860   -1.2240    6.4350 H   0  0  0  0  0  0  0  0  0  0  0  0
    4.8790   -4.5300    4.1940 N   0  0  0  0  0  0  0  0  0  0  0  0
    3.9750   -3.7980    5.2030 C   0  0  0  0  0  0  0  0  0  0  0  0
    3.1360   -2.9250    5.0130 O   0  0  0  0  0  0  0  0  0  0  0  0
    4.5180   -4.0070    6.6110 C   0  0  1  0  0  3  0  0  0  0  0  0
    4.5720   -5.3050    6.9380 C   0  0  1  0  0  3  0  0  0  0  0  0
    3.9790   -6.2520    5.9950 C   0  0  1  0  0  3  0  0  0  0  0  0
    3.2710   -7.3780    6.4200 C   0  0  0  0  0  3  0  0  0  0  0  0
    2.6720   -8.1960    5.4720 C   0  0  0  0  0  3  0  0  0  0  0  0
    2.7940   -7.8470    4.1390 C   0  0  0  0  0  3  0  0  0  0  0  0
    3.4810   -6.7690    3.6970 N   0  0  0  0  0  0  0  0  0  0  0  0
    4.1180   -5.9820    4.6030 C   0  0  0  0  0  0  0  0  0  0  0  0
    5.3540   -5.7820    7.9660 O   0  0  0  0  0  0  0  0  0  0  0  0
    5.3220   -6.7570    7.9710 H   0  0  0  0  0  0  0  0  0  0  0  0
    6.4050   -4.0560    2.8150 C   0  0  0  0  0  1  0  0  0  0  0  0
    7.1830   -4.9610    1.5010 C   0  0  0  0  0  2  0  0  0  0  0  0
    6.1050   -6.0380   -0.5800 C   0  0  0  0  0  1  0  0  0  0  0  0
    6.2690   -6.0870    0.9390 C   0  0  0  0  0  3  0  0  0  0  0  0
    6.8390   -7.4510    1.3430 C   0  0  0  0  0  1  0  0  0  0  0  0
    1.5420   -4.8820   11.3530 N   0  0  0  0  0  0  0  0  0  0  0  0
    0.6740   -4.4780   11.7030 H   0  0  0  0  0  0  0  0  0  0  0  0
    1.2280   -6.4170   10.7780 S   0  0  0  0  0  0  0  0  0  0  0  0
    2.4870   -7.1210   10.7790 O   0  0  0  0  0  0  0  0  0  0  0  0
    0.0720   -6.9500   11.4540 O   0  0  0  0  0  0  0  0  0  0  0  0
    0.7900   -6.1270    9.1960 N   0  0  0  0  0  0  0  0  0  0  0  0
   -0.0050   -5.4890    9.1830 H   0  0  0  0  0  0  0  0  0  0  0  0
    0.5680   -7.3050    8.3450 C   0  0  0  0  0  2  0  0  0  0  0  0
   -0.8200   -7.3480    7.7600 C   0  0  0  0  0  0  0  0  0  0  0  0
   -1.0230   -7.1810    6.3820 C   0  0  0  0  0  3  0  0  0  0  0  0
   -2.3140   -7.2040    5.8490 C   0  0  0  0  0  3  0  0  0  0  0  0
   -3.4120   -7.3900    6.6860 C   0  0  0  0  0  3  0  0  0  0  0  0
   -3.2240   -7.5470    8.0570 C   0  0  0  0  0  3  0  0  0  0  0  0
   -1.9350   -7.5220    8.5920 C   0  0  0  0  0  3  0  0  0  0  0  0
  1 12  1  1  0  0  0
  1  2  1  0  0  0  0
  2  3  1  0  0  0  0
  3  5  2  0  0  0  0
  3  6  1  0  0  0  0
  3  4  2  0  0  0  0
  6  7  1  0  0  0  0
  8  7  2  0  0  0  0
  8 33  1  0  0  0  0
  9  8  1  0  0  0  0
 10 11  1  0  0  0  0
 10  9  2  0  0  0  0
 11  6  2  0  0  0  0
 12 11  1  0  0  0  0
 13  2  1  0  0  0  0
 14 12  1  0  0  0  0
 15 25  2  0  0  0  0
 15 16  1  0  0  0  0
 17 16  2  0  0  0  0
 18 16  1  6  0  0  0
 18  1  1  0  0  0  0
 18 19  1  0  0  0  0
 19 26  1  6  0  0  0
 20 21  1  1  0  0  0
 20 19  1  0  0  0  0
 22 21  2  0  0  0  0
 23 22  1  0  0  0  0
 24 23  2  0  0  0  0
 24 25  1  0  0  0  0
 25 20  1  0  0  0  0
 26 27  1  0  0  0  0
 29 28  1  0  0  0  0
 30 31  1  0  0  0  0
 31 32  1  0  0  0  0
 31 29  1  0  0  0  0
 33 34  1  0  0  0  0
 35 36  2  0  0  0  0
 35 33  1  0  0  0  0
 35 37  2  0  0  0  0
 38 35  1  0  0  0  0
 39 38  1  0  0  0  0
 40 38  1  0  0  0  0
 41 40  1  0  0  0  0
 41 46  1  0  0  0  0
 42 41  2  0  0  0  0
 43 42  1  0  0  0  0
 43 44  2  0  0  0  0
 44 45  1  0  0  0  0
 45 46  2  0  0  0  0
M  END
>  <minimizedAffinity>
-7.86961651

$$$$
