
 OpenBabel09122222393D

 46 49  0  0  1  0  0  0  0  0999 V2000
    5.7450   -2.6320    6.7790 C   0  0  2  0  0  3  0  0  0  0  0  0
    4.8270   -2.3160    5.8700 N   0  0  0  0  0  0  0  0  0  0  0  0
    3.6800   -3.4200    5.4590 S   0  0  0  0  0  0  0  0  0  0  0  0
    2.4020   -2.7570    5.3180 O   0  0  0  0  0  0  0  0  0  0  0  0
    4.1450   -4.3360    4.4410 O   0  0  0  0  0  0  0  0  0  0  0  0
    3.6170   -4.3400    6.9700 C   0  0  0  0  0  0  0  0  0  0  0  0
    2.2240   -4.4510    8.0990 C   0  0  0  0  0  3  0  0  0  0  0  0
    2.4620   -5.1110    9.7680 C   0  0  0  0  0  0  0  0  0  0  0  0
    4.0940   -5.7400   10.2720 C   0  0  0  0  0  3  0  0  0  0  0  0
    5.5380   -5.4980    9.1640 C   0  0  0  0  0  3  0  0  0  0  0  0
    5.2750   -4.8380    7.5040 C   0  0  0  0  0  0  0  0  0  0  0  0
    6.2560   -3.9810    6.8790 N   0  0  0  0  0  0  0  0  0  0  0  0
    4.4190   -1.3930    5.9190 H   0  0  0  0  0  0  0  0  0  0  0  0
    7.1920   -4.0880    7.2660 H   0  0  0  0  0  0  0  0  0  0  0  0
    7.3630   -0.5710    8.4960 N   0  0  0  0  0  0  0  0  0  0  0  0
    6.7500   -1.9240    8.9000 C   0  0  0  0  0  0  0  0  0  0  0  0
    7.2710   -2.8860    9.4510 O   0  0  0  0  0  0  0  0  0  0  0  0
    5.4300   -2.1200    8.1640 C   0  0  1  0  0  3  0  0  0  0  0  0
    4.5540   -1.1450    8.4420 C   0  0  1  0  0  3  0  0  0  0  0  0
    4.9330   -0.1880    9.4800 C   0  0  1  0  0  3  0  0  0  0  0  0
    4.0080    0.3230   10.3930 C   0  0  0  0  0  3  0  0  0  0  0  0
    4.4500    1.1720   11.3970 C   0  0  0  0  0  3  0  0  0  0  0  0
    5.8010    1.4640   11.4570 C   0  0  0  0  0  3  0  0  0  0  0  0
    6.7190    0.9930   10.5820 N   0  0  0  0  0  0  0  0  0  0  0  0
    6.3010    0.2000    9.5600 C   0  0  0  0  0  0  0  0  0  0  0  0
    3.4640   -0.8750    7.6460 O   0  0  0  0  0  0  0  0  0  0  0  0
    3.0150   -0.0730    7.9720 H   0  0  0  0  0  0  0  0  0  0  0  0
    8.8840    0.1510    7.2230 C   0  0  0  0  0  1  0  0  0  0  0  0
    9.7540    1.6940    7.1180 C   0  0  0  0  0  2  0  0  0  0  0  0
    9.3290    2.9210    9.3480 C   0  0  0  0  0  1  0  0  0  0  0  0
    9.0080    2.8420    7.8540 C   0  0  0  0  0  3  0  0  0  0  0  0
    9.3550    4.1800    7.1910 C   0  0  0  0  0  1  0  0  0  0  0  0
    1.3300   -5.1540   10.6330 N   0  0  0  0  0  0  0  0  0  0  0  0
    0.6660   -4.4020   10.4580 H   0  0  0  0  0  0  0  0  0  0  0  0
    0.4940   -6.5920   10.7700 S   0  0  0  0  0  0  0  0  0  0  0  0
    1.3670   -7.5120   11.4570 O   0  0  0  0  0  0  0  0  0  0  0  0
   -0.8380   -6.3220   11.2540 O   0  0  0  0  0  0  0  0  0  0  0  0
    0.3570   -7.0830    9.1840 N   0  0  0  0  0  0  0  0  0  0  0  0
    0.2730   -6.2610    8.5870 H   0  0  0  0  0  0  0  0  0  0  0  0
   -0.6740   -8.0890    8.8880 C   0  0  0  0  0  2  0  0  0  0  0  0
   -1.6660   -7.6210    7.8540 C   0  0  0  0  0  0  0  0  0  0  0  0
   -3.0060   -7.3930    8.1990 C   0  0  0  0  0  3  0  0  0  0  0  0
   -3.9240   -6.9770    7.2320 C   0  0  0  0  0  3  0  0  0  0  0  0
   -3.5130   -6.7900    5.9130 C   0  0  0  0  0  3  0  0  0  0  0  0
   -2.1880   -7.0240    5.5580 C   0  0  0  0  0  3  0  0  0  0  0  0
   -1.2690   -7.4410    6.5220 C   0  0  0  0  0  3  0  0  0  0  0  0
  1  2  1  6  0  0  0
  1 12  1  0  0  0  0
  1 18  1  0  0  0  0
  2 13  1  0  0  0  0
  3  2  1  0  0  0  0
  3  6  1  0  0  0  0
  4  3  2  0  0  0  0
  5  3  2  0  0  0  0
  6 11  2  0  0  0  0
  6  7  1  0  0  0  0
  7  8  2  0  0  0  0
  8  9  1  0  0  0  0
  8 33  1  0  0  0  0
 10  9  2  0  0  0  0
 11 10  1  0  0  0  0
 12 14  1  0  0  0  0
 12 11  1  0  0  0  0
 15 16  1  0  0  0  0
 15 25  2  0  0  0  0
 16 17  2  0  0  0  0
 18 19  1  0  0  0  0
 18 16  1  6  0  0  0
 19 26  1  6  0  0  0
 19 20  1  0  0  0  0
 20 25  1  0  0  0  0
 20 21  1  1  0  0  0
 21 22  2  0  0  0  0
 22 23  1  0  0  0  0
 24 23  2  0  0  0  0
 25 24  1  0  0  0  0
 26 27  1  0  0  0  0
 29 28  1  0  0  0  0
 29 31  1  0  0  0  0
 31 30  1  0  0  0  0
 32 31  1  0  0  0  0
 33 35  1  0  0  0  0
 34 33  1  0  0  0  0
 35 37  2  0  0  0  0
 35 36  2  0  0  0  0
 38 35  1  0  0  0  0
 39 38  1  0  0  0  0
 40 38  1  0  0  0  0
 41 42  1  0  0  0  0
 41 40  1  0  0  0  0
 43 42  2  0  0  0  0
 44 43  1  0  0  0  0
 45 44  2  0  0  0  0
 45 46  1  0  0  0  0
 46 41  2  0  0  0  0
M  END
>  <minimizedAffinity>
-7.55906153

$$$$
