
 OpenBabel09122222393D

 46 49  0  0  1  0  0  0  0  0999 V2000
    3.5320   -1.6450   10.3260 C   0  0  2  0  0  3  0  0  0  0  0  0
    3.3360   -2.6230   11.2070 N   0  0  0  0  0  0  0  0  0  0  0  0
    2.1210   -3.7040   10.9610 S   0  0  0  0  0  0  0  0  0  0  0  0
    2.5810   -5.0320   11.3050 O   0  0  0  0  0  0  0  0  0  0  0  0
    0.8510   -3.2190   11.4550 O   0  0  0  0  0  0  0  0  0  0  0  0
    2.0320   -3.6330    9.1940 C   0  0  0  0  0  0  0  0  0  0  0  0
    2.4130   -4.9630    8.0490 C   0  0  0  0  0  3  0  0  0  0  0  0
    2.6400   -4.6050    6.2890 C   0  0  0  0  0  0  0  0  0  0  0  0
    2.3990   -2.9110    5.6690 C   0  0  0  0  0  3  0  0  0  0  0  0
    2.1450   -1.5390    6.8610 C   0  0  0  0  0  3  0  0  0  0  0  0
    1.9210   -1.9210    8.6110 C   0  0  0  0  0  0  0  0  0  0  0  0
    2.4180   -1.0340    9.6380 N   0  0  0  0  0  0  0  0  0  0  0  0
    4.1520   -3.0950   11.5710 H   0  0  0  0  0  0  0  0  0  0  0  0
    2.5490   -0.0760    9.3160 H   0  0  0  0  0  0  0  0  0  0  0  0
    6.2050   -0.0750    9.8770 N   0  0  0  0  0  0  0  0  0  0  0  0
    5.1860   -0.6020    8.8500 C   0  0  0  0  0  0  0  0  0  0  0  0
    4.6140   -0.0120    7.9410 O   0  0  0  0  0  0  0  0  0  0  0  0
    4.6290   -1.9350    9.3300 C   0  0  1  0  0  3  0  0  0  0  0  0
    5.5930   -2.8510    9.4950 C   0  0  1  0  0  3  0  0  0  0  0  0
    6.9380   -2.4840    9.0530 C   0  0  1  0  0  3  0  0  0  0  0  0
    7.7930   -3.4010    8.4380 C   0  0  0  0  0  3  0  0  0  0  0  0
    9.0290   -2.9670    7.9780 C   0  0  0  0  0  3  0  0  0  0  0  0
    9.3530   -1.6320    8.1390 C   0  0  0  0  0  3  0  0  0  0  0  0
    8.5500   -0.7230    8.7400 N   0  0  0  0  0  0  0  0  0  0  0  0
    7.3570   -1.1360    9.2430 C   0  0  0  0  0  0  0  0  0  0  0  0
    5.4240   -3.9820   10.2610 O   0  0  0  0  0  0  0  0  0  0  0  0
    6.2720   -4.4590   10.3260 H   0  0  0  0  0  0  0  0  0  0  0  0
    6.2820    1.3590   11.4240 C   0  0  0  0  0  1  0  0  0  0  0  0
    6.6450    3.0960   11.4570 C   0  0  0  0  0  2  0  0  0  0  0  0
    7.4860    4.1630    9.2650 C   0  0  0  0  0  1  0  0  0  0  0  0
    7.8670    3.4590   10.5680 C   0  0  0  0  0  3  0  0  0  0  0  0
    8.8260    4.3520   11.3640 C   0  0  0  0  0  1  0  0  0  0  0  0
    2.9660   -5.6920    5.4260 N   0  0  0  0  0  0  0  0  0  0  0  0
    2.1450   -6.1480    5.0330 H   0  0  0  0  0  0  0  0  0  0  0  0
    4.0740   -5.4290    4.2060 S   0  0  0  0  0  0  0  0  0  0  0  0
    3.4710   -4.4830    3.2990 O   0  0  0  0  0  0  0  0  0  0  0  0
    5.3710   -5.1850    4.7870 O   0  0  0  0  0  0  0  0  0  0  0  0
    4.1390   -6.9130    3.4510 N   0  0  0  0  0  0  0  0  0  0  0  0
    3.7120   -7.6130    4.0570 H   0  0  0  0  0  0  0  0  0  0  0  0
    5.4510   -7.3430    2.9470 C   0  0  0  0  0  2  0  0  0  0  0  0
    5.8020   -6.7140    1.6230 C   0  0  0  0  0  0  0  0  0  0  0  0
    4.8290   -6.5540    0.6250 C   0  0  0  0  0  3  0  0  0  0  0  0
    5.1660   -5.9870   -0.6060 C   0  0  0  0  0  3  0  0  0  0  0  0
    6.4760   -5.5800   -0.8530 C   0  0  0  0  0  3  0  0  0  0  0  0
    7.4520   -5.7450    0.1260 C   0  0  0  0  0  3  0  0  0  0  0  0
    7.1190   -6.3130    1.3560 C   0  0  0  0  0  3  0  0  0  0  0  0
  1 12  1  6  0  0  0
  1  2  1  0  0  0  0
  2 13  1  0  0  0  0
  3  2  1  0  0  0  0
  3  4  2  0  0  0  0
  3  5  2  0  0  0  0
  6  3  1  0  0  0  0
  7  6  2  0  0  0  0
  8  7  1  0  0  0  0
  9  8  2  0  0  0  0
  9 10  1  0  0  0  0
 10 11  2  0  0  0  0
 11  6  1  0  0  0  0
 11 12  1  0  0  0  0
 14 12  1  0  0  0  0
 16 15  1  0  0  0  0
 17 16  2  0  0  0  0
 18 16  1  1  0  0  0
 18 19  1  0  0  0  0
 18  1  1  0  0  0  0
 19 26  1  1  0  0  0
 20 21  1  6  0  0  0
 20 25  1  0  0  0  0
 20 19  1  0  0  0  0
 22 23  1  0  0  0  0
 22 21  2  0  0  0  0
 23 24  2  0  0  0  0
 24 25  1  0  0  0  0
 25 15  2  0  0  0  0
 26 27  1  0  0  0  0
 28 29  1  0  0  0  0
 30 31  1  0  0  0  0
 31 32  1  0  0  0  0
 31 29  1  0  0  0  0
 33  8  1  0  0  0  0
 34 33  1  0  0  0  0
 35 37  2  0  0  0  0
 35 33  1  0  0  0  0
 36 35  2  0  0  0  0
 38 39  1  0  0  0  0
 38 35  1  0  0  0  0
 40 38  1  0  0  0  0
 41 40  1  0  0  0  0
 42 41  2  0  0  0  0
 43 42  1  0  0  0  0
 44 43  2  0  0  0  0
 44 45  1  0  0  0  0
 45 46  2  0  0  0  0
 46 41  1  0  0  0  0
M  END
>  <minimizedAffinity>
-7.93530226

$$$$
