
 OpenBabel09122222393D

 46 49  0  0  1  0  0  0  0  0999 V2000
    2.1270   -5.1940    5.3740 C   0  0  2  0  0  3  0  0  0  0  0  0
    1.7290   -4.1460    4.6560 N   0  0  0  0  0  0  0  0  0  0  0  0
    2.0140   -2.6260    5.2150 S   0  0  0  0  0  0  0  0  0  0  0  0
    2.4260   -1.7790    4.1170 O   0  0  0  0  0  0  0  0  0  0  0  0
    0.9900   -2.1830    6.1360 O   0  0  0  0  0  0  0  0  0  0  0  0
    3.4580   -2.9470    6.1870 C   0  0  0  0  0  0  0  0  0  0  0  0
    5.1140   -2.3190    5.8840 C   0  0  0  0  0  3  0  0  0  0  0  0
    6.5310   -3.0510    6.7410 C   0  0  0  0  0  0  0  0  0  0  0  0
    6.2670   -4.3650    7.9730 C   0  0  0  0  0  3  0  0  0  0  0  0
    4.5930   -5.0920    8.1750 C   0  0  0  0  0  3  0  0  0  0  0  0
    3.1970   -4.3440    7.3090 C   0  0  0  0  0  0  0  0  0  0  0  0
    2.1050   -5.1540    6.8180 N   0  0  0  0  0  0  0  0  0  0  0  0
    1.8750   -4.1820    3.6570 H   0  0  0  0  0  0  0  0  0  0  0  0
    2.0150   -6.0470    7.3000 H   0  0  0  0  0  0  0  0  0  0  0  0
    2.6650   -8.0370    4.1750 N   0  0  0  0  0  0  0  0  0  0  0  0
    3.4340   -7.2640    5.2620 C   0  0  0  0  0  0  0  0  0  0  0  0
    3.7540   -7.6120    6.3930 O   0  0  0  0  0  0  0  0  0  0  0  0
    3.4410   -5.7800    4.9160 C   0  0  1  0  0  3  0  0  0  0  0  0
    4.0140   -5.5470    3.7280 C   0  0  1  0  0  3  0  0  0  0  0  0
    4.6520   -6.6820    3.0650 C   0  0  1  0  0  3  0  0  0  0  0  0
    5.8460   -6.5510    2.3520 C   0  0  0  0  0  3  0  0  0  0  0  0
    6.4350   -7.6840    1.8080 C   0  0  0  0  0  3  0  0  0  0  0  0
    5.8150   -8.9030    2.0110 C   0  0  0  0  0  3  0  0  0  0  0  0
    4.6540   -9.0600    2.6880 N   0  0  0  0  0  0  0  0  0  0  0  0
    4.0330   -7.9590    3.1870 C   0  0  0  0  0  0  0  0  0  0  0  0
    3.8160   -4.3810    3.0220 O   0  0  0  0  0  0  0  0  0  0  0  0
    4.2430   -4.4560    2.1480 H   0  0  0  0  0  0  0  0  0  0  0  0
    0.7600   -8.9070    3.9120 C   0  0  0  0  0  1  0  0  0  0  0  0
   -0.7980   -8.6990    4.7360 C   0  0  0  0  0  2  0  0  0  0  0  0
   -2.2360   -6.8210    5.7670 C   0  0  0  0  0  1  0  0  0  0  0  0
   -0.8350   -7.4140    5.6110 C   0  0  0  0  0  3  0  0  0  0  0  0
   -0.2610   -7.7270    6.9970 C   0  0  0  0  0  1  0  0  0  0  0  0
    7.8250   -2.5330    6.4470 N   0  0  0  0  0  0  0  0  0  0  0  0
    7.9930   -2.4220    5.4480 H   0  0  0  0  0  0  0  0  0  0  0  0
    8.3210   -1.1470    7.2340 S   0  0  0  0  0  0  0  0  0  0  0  0
    8.8590   -1.5670    8.5050 O   0  0  0  0  0  0  0  0  0  0  0  0
    9.0940   -0.3360    6.3260 O   0  0  0  0  0  0  0  0  0  0  0  0
    6.8820   -0.3540    7.5090 N   0  0  0  0  0  0  0  0  0  0  0  0
    6.8280    0.4590    6.8950 H   0  0  0  0  0  0  0  0  0  0  0  0
    6.5690   -0.0140    8.9040 C   0  0  0  0  0  2  0  0  0  0  0  0
    5.3570   -0.7440    9.4250 C   0  0  0  0  0  0  0  0  0  0  0  0
    5.4940   -1.7940   10.3440 C   0  0  0  0  0  3  0  0  0  0  0  0
    4.3680   -2.4790   10.8090 C   0  0  0  0  0  3  0  0  0  0  0  0
    3.0990   -2.1240   10.3560 C   0  0  0  0  0  3  0  0  0  0  0  0
    2.9520   -1.0900    9.4350 C   0  0  0  0  0  3  0  0  0  0  0  0
    4.0760   -0.4050    8.9680 C   0  0  0  0  0  3  0  0  0  0  0  0
  1  2  1  6  0  0  0
  1 12  1  0  0  0  0
  2  3  1  0  0  0  0
  3  5  2  0  0  0  0
  3  6  1  0  0  0  0
  4  3  2  0  0  0  0
  6 11  1  0  0  0  0
  7  6  2  0  0  0  0
  7  8  1  0  0  0  0
  8  9  2  0  0  0  0
  9 10  1  0  0  0  0
 11 10  2  0  0  0  0
 12 14  1  0  0  0  0
 12 11  1  0  0  0  0
 13  2  1  0  0  0  0
 15 16  1  0  0  0  0
 16 17  2  0  0  0  0
 18 16  1  6  0  0  0
 18  1  1  0  0  0  0
 19 26  1  6  0  0  0
 19 18  1  0  0  0  0
 20 21  1  1  0  0  0
 20 25  1  0  0  0  0
 20 19  1  0  0  0  0
 22 23  1  0  0  0  0
 22 21  2  0  0  0  0
 23 24  2  0  0  0  0
 24 25  1  0  0  0  0
 25 15  2  0  0  0  0
 27 26  1  0  0  0  0
 28 29  1  0  0  0  0
 29 31  1  0  0  0  0
 31 30  1  0  0  0  0
 31 32  1  0  0  0  0
 33  8  1  0  0  0  0
 33 35  1  0  0  0  0
 34 33  1  0  0  0  0
 35 38  1  0  0  0  0
 35 36  2  0  0  0  0
 37 35  2  0  0  0  0
 38 40  1  0  0  0  0
 39 38  1  0  0  0  0
 40 41  1  0  0  0  0
 41 42  1  0  0  0  0
 42 43  2  0  0  0  0
 44 43  1  0  0  0  0
 45 44  2  0  0  0  0
 46 41  2  0  0  0  0
 46 45  1  0  0  0  0
M  END
>  <minimizedAffinity>
-7.5637188

$$$$
