
 OpenBabel09122222393D

 46 49  0  0  1  0  0  0  0  0999 V2000
    5.0640   -1.8270    7.4130 C   0  0  2  0  0  3  0  0  0  0  0  0
    4.3390   -1.1000    8.2610 N   0  0  0  0  0  0  0  0  0  0  0  0
    2.7310   -1.4010    8.4170 S   0  0  0  0  0  0  0  0  0  0  0  0
    2.3590   -1.3180    9.8120 O   0  0  0  0  0  0  0  0  0  0  0  0
    1.9470   -0.7200    7.4090 O   0  0  0  0  0  0  0  0  0  0  0  0
    2.7200   -3.1180    7.9840 C   0  0  0  0  0  0  0  0  0  0  0  0
    2.3020   -4.4920    9.0630 C   0  0  0  0  0  3  0  0  0  0  0  0
    2.7150   -6.1860    8.5740 C   0  0  0  0  0  0  0  0  0  0  0  0
    3.4770   -6.5020    6.9520 C   0  0  0  0  0  3  0  0  0  0  0  0
    4.0240   -5.0860    5.9180 C   0  0  0  0  0  3  0  0  0  0  0  0
    3.6000   -3.4070    6.4270 C   0  0  0  0  0  0  0  0  0  0  0  0
    4.4960   -2.3030    6.1720 N   0  0  0  0  0  0  0  0  0  0  0  0
    4.7440   -0.8930    9.1630 H   0  0  0  0  0  0  0  0  0  0  0  0
    5.1470   -2.4780    5.4090 H   0  0  0  0  0  0  0  0  0  0  0  0
    8.1560   -2.1020    7.8280 N   0  0  0  0  0  0  0  0  0  0  0  0
    7.1330   -3.1370    7.3240 C   0  0  0  0  0  0  0  0  0  0  0  0
    7.1460   -3.8190    6.3060 O   0  0  0  0  0  0  0  0  0  0  0  0
    5.8200   -2.9540    8.0740 C   0  0  1  0  0  3  0  0  0  0  0  0
    5.9750   -3.1040    9.3960 C   0  0  1  0  0  3  0  0  0  0  0  0
    7.2840   -3.5550    9.8640 C   0  0  1  0  0  3  0  0  0  0  0  0
    7.4250   -4.4490   10.9280 C   0  0  0  0  0  3  0  0  0  0  0  0
    8.6950   -4.8920   11.2730 C   0  0  0  0  0  3  0  0  0  0  0  0
    9.7690   -4.4340   10.5310 C   0  0  0  0  0  3  0  0  0  0  0  0
    9.6650   -3.5610    9.5030 N   0  0  0  0  0  0  0  0  0  0  0  0
    8.4370   -3.0750    9.1800 C   0  0  0  0  0  0  0  0  0  0  0  0
    5.0620   -2.6290   10.3120 O   0  0  0  0  0  0  0  0  0  0  0  0
    5.4110   -2.7580   11.2140 H   0  0  0  0  0  0  0  0  0  0  0  0
    8.9740   -0.2620    7.1970 C   0  0  0  0  0  1  0  0  0  0  0  0
    9.2850    1.2790    8.0220 C   0  0  0  0  0  2  0  0  0  0  0  0
    7.6980    2.5710    9.5920 C   0  0  0  0  0  1  0  0  0  0  0  0
    8.0010    2.1460    8.1550 C   0  0  0  0  0  3  0  0  0  0  0  0
    8.1380    3.3940    7.2760 C   0  0  0  0  0  1  0  0  0  0  0  0
    2.3840   -7.2370    9.4770 N   0  0  0  0  0  0  0  0  0  0  0  0
    2.6850   -7.0510   10.4330 H   0  0  0  0  0  0  0  0  0  0  0  0
    0.8100   -7.7910    9.5050 S   0  0  0  0  0  0  0  0  0  0  0  0
    0.8140   -9.0020   10.2870 O   0  0  0  0  0  0  0  0  0  0  0  0
   -0.0720   -6.6960    9.8260 O   0  0  0  0  0  0  0  0  0  0  0  0
    0.5420   -8.1950    7.9110 N   0  0  0  0  0  0  0  0  0  0  0  0
    0.6250   -7.3570    7.3360 H   0  0  0  0  0  0  0  0  0  0  0  0
   -0.6860   -8.9480    7.6160 C   0  0  0  0  0  2  0  0  0  0  0  0
   -1.8780   -8.0530    7.3870 C   0  0  0  0  0  0  0  0  0  0  0  0
   -2.9400   -8.0250    8.3030 C   0  0  0  0  0  3  0  0  0  0  0  0
   -4.0490   -7.2080    8.0750 C   0  0  0  0  0  3  0  0  0  0  0  0
   -4.1100   -6.4150    6.9300 C   0  0  0  0  0  3  0  0  0  0  0  0
   -3.0660   -6.4430    6.0090 C   0  0  0  0  0  3  0  0  0  0  0  0
   -1.9570   -7.2600    6.2330 C   0  0  0  0  0  3  0  0  0  0  0  0
  1 12  1  6  0  0  0
  1 18  1  0  0  0  0
  1  2  1  0  0  0  0
  2  3  1  0  0  0  0
  2 13  1  0  0  0  0
  3  4  2  0  0  0  0
  5  3  2  0  0  0  0
  6  3  1  0  0  0  0
  6  7  1  0  0  0  0
  8  7  2  0  0  0  0
  8 33  1  0  0  0  0
  9  8  1  0  0  0  0
 10 11  1  0  0  0  0
 10  9  2  0  0  0  0
 11  6  2  0  0  0  0
 12 11  1  0  0  0  0
 14 12  1  0  0  0  0
 15 25  2  0  0  0  0
 16 15  1  0  0  0  0
 17 16  2  0  0  0  0
 18 16  1  6  0  0  0
 18 19  1  0  0  0  0
 19 20  1  0  0  0  0
 19 26  1  1  0  0  0
 20 21  1  6  0  0  0
 21 22  2  0  0  0  0
 23 22  1  0  0  0  0
 24 23  2  0  0  0  0
 25 24  1  0  0  0  0
 25 20  1  0  0  0  0
 26 27  1  0  0  0  0
 28 29  1  0  0  0  0
 29 31  1  0  0  0  0
 31 30  1  0  0  0  0
 32 31  1  0  0  0  0
 33 35  1  0  0  0  0
 33 34  1  0  0  0  0
 35 37  2  0  0  0  0
 35 36  2  0  0  0  0
 38 35  1  0  0  0  0
 39 38  1  0  0  0  0
 40 38  1  0  0  0  0
 41 40  1  0  0  0  0
 41 42  1  0  0  0  0
 43 42  2  0  0  0  0
 44 43  1  0  0  0  0
 45 46  1  0  0  0  0
 45 44  2  0  0  0  0
 46 41  2  0  0  0  0
M  END
>  <minimizedAffinity>
-7.51462269

$$$$
