
 OpenBabel09122222393D

 46 49  0  0  1  0  0  0  0  0999 V2000
    5.4750   -2.4380    9.6120 C   0  0  2  0  0  3  0  0  0  0  0  0
    5.7940   -3.6240   10.1270 N   0  0  0  0  0  0  0  0  0  0  0  0
    4.6910   -4.8430   10.0950 S   0  0  0  0  0  0  0  0  0  0  0  0
    5.3560   -6.0840    9.7640 O   0  0  0  0  0  0  0  0  0  0  0  0
    3.7750   -4.7790   11.2130 O   0  0  0  0  0  0  0  0  0  0  0  0
    3.7700   -4.3550    8.6650 C   0  0  0  0  0  0  0  0  0  0  0  0
    3.6600   -5.2450    7.1080 C   0  0  0  0  0  3  0  0  0  0  0  0
    2.9980   -4.4200    5.6380 C   0  0  0  0  0  0  0  0  0  0  0  0
    2.3670   -2.7180    5.7600 C   0  0  0  0  0  3  0  0  0  0  0  0
    2.6080   -1.7730    7.3150 C   0  0  0  0  0  3  0  0  0  0  0  0
    3.2690   -2.6180    8.7670 C   0  0  0  0  0  0  0  0  0  0  0  0
    4.1260   -1.9280    9.7040 N   0  0  0  0  0  0  0  0  0  0  0  0
    6.7170   -3.9840    9.9330 H   0  0  0  0  0  0  0  0  0  0  0  0
    4.0170   -0.9160    9.6830 H   0  0  0  0  0  0  0  0  0  0  0  0
    7.7310   -0.4940    8.6410 N   0  0  0  0  0  0  0  0  0  0  0  0
    6.3330   -0.7550    8.0510 C   0  0  0  0  0  0  0  0  0  0  0  0
    5.4420    0.0380    7.7680 O   0  0  0  0  0  0  0  0  0  0  0  0
    5.9870   -2.2300    8.2070 C   0  0  1  0  0  3  0  0  0  0  0  0
    6.8740   -3.0190    7.5870 C   0  0  1  0  0  3  0  0  0  0  0  0
    7.8900   -2.3610    6.7680 C   0  0  1  0  0  3  0  0  0  0  0  0
    8.3270   -2.8960    5.5540 C   0  0  0  0  0  3  0  0  0  0  0  0
    9.2410   -2.1810    4.7920 C   0  0  0  0  0  3  0  0  0  0  0  0
    9.6690   -0.9550    5.2680 C   0  0  0  0  0  3  0  0  0  0  0  0
    9.2720   -0.4160    6.4430 N   0  0  0  0  0  0  0  0  0  0  0  0
    8.4160   -1.1200    7.2300 C   0  0  0  0  0  0  0  0  0  0  0  0
    7.0140   -4.3570    7.8820 O   0  0  0  0  0  0  0  0  0  0  0  0
    7.7740   -4.7200    7.3900 H   0  0  0  0  0  0  0  0  0  0  0  0
    8.5710    0.3160   10.4000 C   0  0  0  0  0  1  0  0  0  0  0  0
    8.4400    1.8970   11.1960 C   0  0  0  0  0  2  0  0  0  0  0  0
    5.9730    2.6390   11.3430 C   0  0  0  0  0  1  0  0  0  0  0  0
    7.3000    2.7670   10.5930 C   0  0  0  0  0  3  0  0  0  0  0  0
    7.7360    4.2370   10.5840 C   0  0  0  0  0  1  0  0  0  0  0  0
    2.9550   -5.1630    4.4220 N   0  0  0  0  0  0  0  0  0  0  0  0
    2.1480   -4.9350    3.8450 H   0  0  0  0  0  0  0  0  0  0  0  0
    4.3180   -5.1840    3.4600 S   0  0  0  0  0  0  0  0  0  0  0  0
    4.1220   -4.1740    2.4480 O   0  0  0  0  0  0  0  0  0  0  0  0
    5.4920   -5.1840    4.2980 O   0  0  0  0  0  0  0  0  0  0  0  0
    4.2250   -6.6800    2.7340 N   0  0  0  0  0  0  0  0  0  0  0  0
    3.6560   -7.2970    3.3130 H   0  0  0  0  0  0  0  0  0  0  0  0
    5.4960   -7.3070    2.3420 C   0  0  0  0  0  2  0  0  0  0  0  0
    6.1710   -6.5940    1.1990 C   0  0  0  0  0  0  0  0  0  0  0  0
    7.4040   -5.9510    1.3840 C   0  0  0  0  0  3  0  0  0  0  0  0
    8.0150   -5.2760    0.3250 C   0  0  0  0  0  3  0  0  0  0  0  0
    7.4000   -5.2330   -0.9250 C   0  0  0  0  0  3  0  0  0  0  0  0
    6.1710   -5.8590   -1.1170 C   0  0  0  0  0  3  0  0  0  0  0  0
    5.5570   -6.5320   -0.0600 C   0  0  0  0  0  3  0  0  0  0  0  0
  1 12  1  6  0  0  0
  1  2  1  0  0  0  0
  3  2  1  0  0  0  0
  3  5  2  0  0  0  0
  4  3  2  0  0  0  0
  6 11  1  0  0  0  0
  6  3  1  0  0  0  0
  7  6  2  0  0  0  0
  8  9  2  0  0  0  0
  8  7  1  0  0  0  0
  9 10  1  0  0  0  0
 10 11  2  0  0  0  0
 11 12  1  0  0  0  0
 13  2  1  0  0  0  0
 14 12  1  0  0  0  0
 16 15  1  0  0  0  0
 17 16  2  0  0  0  0
 18 16  1  1  0  0  0
 18  1  1  0  0  0  0
 19 26  1  1  0  0  0
 19 18  1  0  0  0  0
 20 21  1  6  0  0  0
 20 25  1  0  0  0  0
 20 19  1  0  0  0  0
 22 23  1  0  0  0  0
 22 21  2  0  0  0  0
 23 24  2  0  0  0  0
 24 25  1  0  0  0  0
 25 15  2  0  0  0  0
 27 26  1  0  0  0  0
 28 29  1  0  0  0  0
 31 29  1  0  0  0  0
 31 30  1  0  0  0  0
 32 31  1  0  0  0  0
 33  8  1  0  0  0  0
 34 33  1  0  0  0  0
 35 37  2  0  0  0  0
 35 33  1  0  0  0  0
 36 35  2  0  0  0  0
 38 39  1  0  0  0  0
 38 35  1  0  0  0  0
 40 38  1  0  0  0  0
 41 42  1  0  0  0  0
 41 40  1  0  0  0  0
 43 42  2  0  0  0  0
 44 43  1  0  0  0  0
 45 44  2  0  0  0  0
 45 46  1  0  0  0  0
 46 41  2  0  0  0  0
M  END
>  <minimizedAffinity>
-9.08254147

$$$$
