
 OpenBabel09122222393D

 25 28  0  0  0  0  0  0  0  0999 V2000
    6.2980   -6.1390    0.1780 C   0  0  0  0  0  0  0  0  0  0  0  0
    6.3200   -5.6490    1.4930 C   0  0  0  0  0  3  0  0  0  0  0  0
    7.2720   -4.7030    1.8900 C   0  0  0  0  0  3  0  0  0  0  0  0
    8.1970   -4.2650    0.9320 C   0  0  0  0  0  0  0  0  0  0  0  0
    9.3020   -3.3420    0.8930 C   0  0  0  0  0  0  0  0  0  0  0  0
    9.8170   -3.3850   -0.4050 C   0  0  0  0  0  0  0  0  0  0  0  0
    9.0530   -4.2810   -1.1180 N   0  0  0  0  0  0  0  0  0  0  0  0
    8.0810   -4.8190   -0.3330 C   0  0  0  0  0  0  0  0  0  0  0  0
    7.1930   -5.7240   -0.7700 N   0  0  0  0  0  0  0  0  0  0  0  0
    9.1790   -4.5420   -2.0840 H   0  0  0  0  0  0  0  0  0  0  0  0
    9.8060   -2.4750    2.0230 C   0  0  0  0  0  3  0  0  0  0  0  0
    9.0740   -1.1240    2.0990 C   0  0  0  0  0  2  0  0  0  0  0  0
    9.6150   -0.2560    3.2330 C   0  0  0  0  0  2  0  0  0  0  0  0
    9.5730   -0.9880    4.5710 C   0  0  0  0  0  2  0  0  0  0  0  0
   10.3050   -2.3240    4.5040 C   0  0  0  0  0  2  0  0  0  0  0  0
    9.7700   -3.2050    3.3770 C   0  0  0  0  0  2  0  0  0  0  0  0
   10.9390   -2.6890   -1.0270 C   0  0  0  0  0  0  0  0  0  0  0  0
   10.8360   -1.3320   -1.3570 C   0  0  0  0  0  3  0  0  0  0  0  0
   11.9060   -0.6680   -1.9590 C   0  0  0  0  0  3  0  0  0  0  0  0
   13.0860   -1.3560   -2.2390 C   0  0  0  0  0  3  0  0  0  0  0  0
   13.1960   -2.7080   -1.9180 C   0  0  0  0  0  3  0  0  0  0  0  0
   12.1260   -3.3720   -1.3150 C   0  0  0  0  0  3  0  0  0  0  0  0
    5.4270   -7.8990   -1.2270 O   0  0  0  0  0  0  0  0  0  0  0  0
    5.2140   -7.1830   -0.1890 C   0  0  0  0  0  0  0  0  0  0  0  0
    4.1810   -7.2730    0.5520 O   0  0  0  0  0  1  0  0  0  0  0  0
  1  2  1  0  0  0  0
  2  3  2  0  0  0  0
  4  3  1  0  0  0  0
  5  4  1  0  0  0  0
  5 11  1  0  0  0  0
  6  5  2  0  0  0  0
  7  6  1  0  0  0  0
  7  8  1  0  0  0  0
  8  4  2  0  0  0  0
  9  8  1  0  0  0  0
  9  1  2  0  0  0  0
 10  7  1  0  0  0  0
 11 12  1  0  0  0  0
 11 16  1  0  0  0  0
 12 13  1  0  0  0  0
 13 14  1  0  0  0  0
 15 14  1  0  0  0  0
 16 15  1  0  0  0  0
 17  6  1  0  0  0  0
 18 17  2  0  0  0  0
 19 18  1  0  0  0  0
 20 19  2  0  0  0  0
 20 21  1  0  0  0  0
 21 22  2  0  0  0  0
 22 17  1  0  0  0  0
 23 24  2  0  0  0  0
 24  1  1  0  0  0  0
 24 25  1  0  0  0  0
M  END
>  <minimizedAffinity>
-8.53821564

$$$$
