
 OpenBabel09122222393D

 25 28  0  0  0  0  0  0  0  0999 V2000
    9.5590   -3.8740    0.0860 C   0  0  0  0  0  0  0  0  0  0  0  0
    9.1870   -3.0850    1.1850 C   0  0  0  0  0  3  0  0  0  0  0  0
    8.0820   -3.4300    1.9730 C   0  0  0  0  0  3  0  0  0  0  0  0
    7.3660   -4.5840    1.6260 C   0  0  0  0  0  0  0  0  0  0  0  0
    6.2170   -5.2910    2.1300 C   0  0  0  0  0  0  0  0  0  0  0  0
    6.0230   -6.3930    1.2930 C   0  0  0  0  0  0  0  0  0  0  0  0
    7.0150   -6.3600    0.3380 N   0  0  0  0  0  0  0  0  0  0  0  0
    7.8250   -5.2830    0.5210 C   0  0  0  0  0  0  0  0  0  0  0  0
    8.8720   -5.0030   -0.2690 N   0  0  0  0  0  0  0  0  0  0  0  0
    7.1410   -7.0140   -0.4180 H   0  0  0  0  0  0  0  0  0  0  0  0
    5.3840   -4.9320    3.3390 C   0  0  0  0  0  3  0  0  0  0  0  0
    5.9900   -3.7710    4.1460 C   0  0  0  0  0  2  0  0  0  0  0  0
    5.1440   -3.4420    5.3750 C   0  0  0  0  0  2  0  0  0  0  0  0
    3.6920   -3.1630    5.0000 C   0  0  0  0  0  2  0  0  0  0  0  0
    3.0840   -4.3160    4.2070 C   0  0  0  0  0  2  0  0  0  0  0  0
    3.9170   -4.6520    2.9720 C   0  0  0  0  0  2  0  0  0  0  0  0
    5.0140   -7.4480    1.2960 C   0  0  0  0  0  0  0  0  0  0  0  0
    4.0200   -7.4790    0.3110 C   0  0  0  0  0  3  0  0  0  0  0  0
    3.0500   -8.4830    0.3180 C   0  0  0  0  0  3  0  0  0  0  0  0
    3.0650   -9.4610    1.3110 C   0  0  0  0  0  3  0  0  0  0  0  0
    4.0490   -9.4350    2.2980 C   0  0  0  0  0  3  0  0  0  0  0  0
    5.0200   -8.4310    2.2910 C   0  0  0  0  0  3  0  0  0  0  0  0
   10.6910   -2.3410   -1.3990 O   0  0  0  0  0  0  0  0  0  0  0  0
   10.7940   -3.4320   -0.7390 C   0  0  0  0  0  0  0  0  0  0  0  0
   11.8340   -4.1680   -0.7160 O   0  0  0  0  0  1  0  0  0  0  0  0
  1  2  1  0  0  0  0
  2  3  2  0  0  0  0
  4  3  1  0  0  0  0
  4  5  1  0  0  0  0
  5 11  1  0  0  0  0
  6 17  1  0  0  0  0
  6  5  2  0  0  0  0
  7  8  1  0  0  0  0
  7  6  1  0  0  0  0
  8  4  2  0  0  0  0
  9  1  2  0  0  0  0
  9  8  1  0  0  0  0
 10  7  1  0  0  0  0
 11 12  1  0  0  0  0
 12 13  1  0  0  0  0
 14 13  1  0  0  0  0
 15 14  1  0  0  0  0
 16 11  1  0  0  0  0
 16 15  1  0  0  0  0
 17 22  1  0  0  0  0
 18 19  1  0  0  0  0
 18 17  2  0  0  0  0
 19 20  2  0  0  0  0
 20 21  1  0  0  0  0
 22 21  2  0  0  0  0
 23 24  2  0  0  0  0
 24 25  1  0  0  0  0
 24  1  1  0  0  0  0
M  END
>  <minimizedAffinity>
-7.24408102

$$$$
