
 OpenBabel09122222393D

 25 28  0  0  0  0  0  0  0  0999 V2000
    6.7710   -5.6960    1.6030 C   0  0  0  0  0  0  0  0  0  0  0  0
    7.6430   -5.8420    0.5130 C   0  0  0  0  0  3  0  0  0  0  0  0
    8.6290   -4.8840    0.2500 C   0  0  0  0  0  3  0  0  0  0  0  0
    8.7130   -3.7800    1.1100 C   0  0  0  0  0  0  0  0  0  0  0  0
    9.5370   -2.6030    1.2210 C   0  0  0  0  0  0  0  0  0  0  0  0
    9.0740   -1.8910    2.3310 C   0  0  0  0  0  0  0  0  0  0  0  0
    8.0310   -2.6090    2.8700 N   0  0  0  0  0  0  0  0  0  0  0  0
    7.8000   -3.7400    2.1510 C   0  0  0  0  0  0  0  0  0  0  0  0
    6.8380   -4.6250    2.4520 N   0  0  0  0  0  0  0  0  0  0  0  0
    7.4790   -2.3530    3.6740 H   0  0  0  0  0  0  0  0  0  0  0  0
   10.6920   -2.2120    0.3280 C   0  0  0  0  0  3  0  0  0  0  0  0
   11.6490   -3.3850    0.0570 C   0  0  0  0  0  2  0  0  0  0  0  0
   12.8200   -2.9610   -0.8270 C   0  0  0  0  0  2  0  0  0  0  0  0
   12.3400   -2.3200   -2.1260 C   0  0  0  0  0  2  0  0  0  0  0  0
   11.3980   -1.1500   -1.8620 C   0  0  0  0  0  2  0  0  0  0  0  0
   10.2190   -1.5630   -0.9830 C   0  0  0  0  0  2  0  0  0  0  0  0
    9.5010   -0.6240    2.9170 C   0  0  0  0  0  0  0  0  0  0  0  0
    9.9550   -0.5740    4.2400 C   0  0  0  0  0  3  0  0  0  0  0  0
   10.3550    0.6390    4.8040 C   0  0  0  0  0  3  0  0  0  0  0  0
   10.3020    1.8110    4.0500 C   0  0  0  0  0  3  0  0  0  0  0  0
    9.8480    1.7700    2.7330 C   0  0  0  0  0  3  0  0  0  0  0  0
    9.4480    0.5570    2.1680 C   0  0  0  0  0  3  0  0  0  0  0  0
    5.5110   -7.1710    3.0400 O   0  0  0  0  0  1  0  0  0  0  0  0
    5.7060   -6.7970    1.8330 C   0  0  0  0  0  0  0  0  0  0  0  0
    5.0880   -7.2650    0.8220 O   0  0  0  0  0  0  0  0  0  0  0  0
  1 24  1  0  0  0  0
  1  9  1  0  0  0  0
  2  1  2  0  0  0  0
  3  2  1  0  0  0  0
  3  4  2  0  0  0  0
  4  5  1  0  0  0  0
  4  8  1  0  0  0  0
  5  6  2  0  0  0  0
  6  7  1  0  0  0  0
  6 17  1  0  0  0  0
  7 10  1  0  0  0  0
  8  9  2  0  0  0  0
  8  7  1  0  0  0  0
 11  5  1  0  0  0  0
 12 11  1  0  0  0  0
 13 12  1  0  0  0  0
 14 15  1  0  0  0  0
 14 13  1  0  0  0  0
 15 16  1  0  0  0  0
 16 11  1  0  0  0  0
 17 18  1  0  0  0  0
 18 19  2  0  0  0  0
 20 19  1  0  0  0  0
 21 20  2  0  0  0  0
 22 21  1  0  0  0  0
 22 17  2  0  0  0  0
 24 23  1  0  0  0  0
 25 24  2  0  0  0  0
M  END
>  <minimizedAffinity>
-7.73880625

$$$$
