
 OpenBabel09122222393D

 25 28  0  0  0  0  0  0  0  0999 V2000
    5.4710   -6.7000    0.4580 C   0  0  0  0  0  0  0  0  0  0  0  0
    6.1890   -6.5850   -0.7420 C   0  0  0  0  0  3  0  0  0  0  0  0
    7.2770   -5.7100   -0.8470 C   0  0  0  0  0  3  0  0  0  0  0  0
    7.6200   -4.9560    0.2840 C   0  0  0  0  0  0  0  0  0  0  0  0
    8.6200   -3.9770    0.6220 C   0  0  0  0  0  0  0  0  0  0  0  0
    8.3940   -3.6110    1.9520 C   0  0  0  0  0  0  0  0  0  0  0  0
    7.3160   -4.3430    2.3980 N   0  0  0  0  0  0  0  0  0  0  0  0
    6.8400   -5.1500    1.4130 C   0  0  0  0  0  0  0  0  0  0  0  0
    5.7910   -5.9710    1.5720 N   0  0  0  0  0  0  0  0  0  0  0  0
    6.8990   -4.2970    3.3150 H   0  0  0  0  0  0  0  0  0  0  0  0
    9.7200   -3.4510   -0.2710 C   0  0  0  0  0  3  0  0  0  0  0  0
    9.6730   -1.9210   -0.4230 C   0  0  0  0  0  2  0  0  0  0  0  0
   10.7780   -1.4160   -1.3490 C   0  0  0  0  0  2  0  0  0  0  0  0
   12.1550   -1.8880   -0.8910 C   0  0  0  0  0  2  0  0  0  0  0  0
   12.2090   -3.4060   -0.7470 C   0  0  0  0  0  2  0  0  0  0  0  0
   11.1120   -3.9250    0.1800 C   0  0  0  0  0  2  0  0  0  0  0  0
    9.0690   -2.6540    2.8230 C   0  0  0  0  0  0  0  0  0  0  0  0
    9.7630   -3.0960    3.9560 C   0  0  0  0  0  3  0  0  0  0  0  0
   10.4020   -2.1810    4.7950 C   0  0  0  0  0  3  0  0  0  0  0  0
   10.3500   -0.8180    4.5090 C   0  0  0  0  0  3  0  0  0  0  0  0
    9.6580   -0.3690    3.3850 C   0  0  0  0  0  3  0  0  0  0  0  0
    9.0180   -1.2840    2.5460 C   0  0  0  0  0  3  0  0  0  0  0  0
    4.3830   -8.6860    1.2970 O   0  0  0  0  0  1  0  0  0  0  0  0
    4.2810   -7.6910    0.5010 C   0  0  0  0  0  0  0  0  0  0  0  0
    3.2760   -7.4640   -0.2490 O   0  0  0  0  0  0  0  0  0  0  0  0
  1 24  1  0  0  0  0
  1  9  1  0  0  0  0
  2  1  2  0  0  0  0
  3  2  1  0  0  0  0
  3  4  2  0  0  0  0
  4  5  1  0  0  0  0
  4  8  1  0  0  0  0
  5  6  2  0  0  0  0
  6  7  1  0  0  0  0
  6 17  1  0  0  0  0
  7 10  1  0  0  0  0
  8  9  2  0  0  0  0
  8  7  1  0  0  0  0
 11 16  1  0  0  0  0
 11  5  1  0  0  0  0
 12 11  1  0  0  0  0
 13 14  1  0  0  0  0
 13 12  1  0  0  0  0
 14 15  1  0  0  0  0
 15 16  1  0  0  0  0
 17 18  1  0  0  0  0
 18 19  2  0  0  0  0
 20 19  1  0  0  0  0
 21 20  2  0  0  0  0
 22 17  2  0  0  0  0
 22 21  1  0  0  0  0
 24 23  1  0  0  0  0
 25 24  2  0  0  0  0
M  END
>  <minimizedAffinity>
-6.22372389

$$$$
