
 OpenBabel09122222393D

 25 28  0  0  0  0  0  0  0  0999 V2000
   10.4610   -2.8550   -0.5280 C   0  0  0  0  0  0  0  0  0  0  0  0
   10.3140   -2.2770    0.7420 C   0  0  0  0  0  3  0  0  0  0  0  0
    9.3410   -2.7420    1.6340 C   0  0  0  0  0  3  0  0  0  0  0  0
    8.5230   -3.8010    1.2150 C   0  0  0  0  0  0  0  0  0  0  0  0
    7.4410   -4.5700    1.7740 C   0  0  0  0  0  0  0  0  0  0  0  0
    7.0590   -5.4960    0.8000 C   0  0  0  0  0  0  0  0  0  0  0  0
    7.8790   -5.3040   -0.2890 N   0  0  0  0  0  0  0  0  0  0  0  0
    8.7580   -4.2920   -0.0590 C   0  0  0  0  0  0  0  0  0  0  0  0
    9.6720   -3.8890   -0.9540 N   0  0  0  0  0  0  0  0  0  0  0  0
    7.8460   -5.8100   -1.1610 H   0  0  0  0  0  0  0  0  0  0  0  0
    6.8390   -4.4260    3.1530 C   0  0  0  0  0  3  0  0  0  0  0  0
    7.5180   -3.3190    3.9780 C   0  0  0  0  0  2  0  0  0  0  0  0
    6.9080   -3.2080    5.3740 C   0  0  0  0  0  2  0  0  0  0  0  0
    5.3970   -3.0120    5.3140 C   0  0  0  0  0  2  0  0  0  0  0  0
    4.7180   -4.1110    4.5040 C   0  0  0  0  0  2  0  0  0  0  0  0
    5.3140   -4.2300    3.1030 C   0  0  0  0  0  2  0  0  0  0  0  0
    6.0160   -6.5170    0.7880 C   0  0  0  0  0  0  0  0  0  0  0  0
    6.0490   -7.5730    1.7060 C   0  0  0  0  0  3  0  0  0  0  0  0
    5.0550   -8.5540    1.6890 C   0  0  0  0  0  3  0  0  0  0  0  0
    4.0240   -8.4870    0.7540 C   0  0  0  0  0  3  0  0  0  0  0  0
    3.9850   -7.4410   -0.1650 C   0  0  0  0  0  3  0  0  0  0  0  0
    4.9790   -6.4590   -0.1490 C   0  0  0  0  0  3  0  0  0  0  0  0
   11.1720   -1.6090   -2.4700 O   0  0  0  0  0  0  0  0  0  0  0  0
   11.5620   -2.2900   -1.4610 C   0  0  0  0  0  0  0  0  0  0  0  0
   12.7800   -2.5280   -1.1750 O   0  0  0  0  0  1  0  0  0  0  0  0
  1  2  1  0  0  0  0
  2  3  2  0  0  0  0
  4  3  1  0  0  0  0
  4  5  1  0  0  0  0
  5 11  1  0  0  0  0
  6  5  2  0  0  0  0
  7  8  1  0  0  0  0
  7  6  1  0  0  0  0
  8  4  2  0  0  0  0
  9  1  2  0  0  0  0
  9  8  1  0  0  0  0
 10  7  1  0  0  0  0
 11 12  1  0  0  0  0
 12 13  1  0  0  0  0
 14 13  1  0  0  0  0
 15 14  1  0  0  0  0
 16 11  1  0  0  0  0
 16 15  1  0  0  0  0
 17  6  1  0  0  0  0
 17 18  1  0  0  0  0
 19 18  2  0  0  0  0
 20 19  1  0  0  0  0
 21 22  1  0  0  0  0
 21 20  2  0  0  0  0
 22 17  2  0  0  0  0
 23 24  2  0  0  0  0
 24 25  1  0  0  0  0
 24  1  1  0  0  0  0
M  END
>  <minimizedAffinity>
-6.48595572

$$$$
