
 OpenBabel09122222393D

 46 48  0  0  1  0  0  0  0  0999 V2000
    0.3860    1.6010   -4.9640 C   0  0  2  0  0  3  0  0  0  0  0  0
    1.6100    2.0390   -5.1920 N   0  0  0  0  0  0  0  0  0  0  0  0
    1.8350    3.3680   -6.1340 S   0  0  0  0  0  0  0  0  0  0  0  0
    2.0070    4.5530   -5.3300 O   0  0  0  0  0  0  0  0  0  0  0  0
    2.7900    3.0370   -7.1700 O   0  0  0  0  0  0  0  0  0  0  0  0
    0.2570    3.4660   -6.9550 C   0  0  0  0  0  0  0  0  0  0  0  0
   -0.5970    5.0310   -7.1850 C   0  0  0  0  0  3  0  0  0  0  0  0
   -2.3500    5.0240   -7.6350 C   0  0  0  0  0  0  0  0  0  0  0  0
   -3.2500    3.4610   -7.8510 C   0  0  0  0  0  3  0  0  0  0  0  0
   -2.4110    1.8780   -7.5050 C   0  0  0  0  0  3  0  0  0  0  0  0
   -0.6700    1.8870   -7.0260 C   0  0  0  0  0  0  0  0  0  0  0  0
   -0.1530    0.8970   -6.1010 N   0  0  0  0  0  0  0  0  0  0  0  0
    2.2400    1.3280   -5.5300 H   0  0  0  0  0  0  0  0  0  0  0  0
   -0.8590    0.1810   -5.9160 H   0  0  0  0  0  0  0  0  0  0  0  0
   -2.0530    0.6210   -3.2090 N   0  0  0  0  0  0  0  0  0  0  0  0
   -2.0540    1.7460   -4.2540 C   0  0  0  0  0  0  0  0  0  0  0  0
   -3.0010    2.1430   -4.9200 O   0  0  0  0  0  0  0  0  0  0  0  0
   -0.7040    2.4250   -4.3150 C   0  0  1  0  0  3  0  0  0  0  0  0
   -0.4700    3.0530   -3.1470 C   0  0  1  0  0  3  0  0  0  0  0  0
   -1.4660    2.9410   -2.0760 C   0  0  2  0  0  3  0  0  0  0  0  0
   -1.6180    3.9570   -1.1280 C   0  0  0  0  0  3  0  0  0  0  0  0
   -2.5990    3.8360   -0.1550 C   0  0  0  0  0  3  0  0  0  0  0  0
   -3.3920    2.7080   -0.1750 C   0  0  0  0  0  3  0  0  0  0  0  0
   -3.2580    1.7030   -1.0740 N   0  0  0  0  0  0  0  0  0  0  0  0
   -2.2670    1.7660   -1.9960 C   0  0  0  0  0  0  0  0  0  0  0  0
    0.7570    3.5620   -2.7750 O   0  0  0  0  0  0  0  0  0  0  0  0
    1.1630    4.0030   -3.5450 H   0  0  0  0  0  0  0  0  0  0  0  0
   -1.8510   -1.4780   -3.2080 C   0  0  0  0  0  1  0  0  0  0  0  0
   -1.7180   -2.6830   -4.5080 C   0  0  0  0  0  2  0  0  0  0  0  0
    0.2410   -4.3340   -4.2450 C   0  0  0  0  0  1  0  0  0  0  0  0
   -0.2970   -3.1020   -4.9760 C   0  0  0  0  0  3  0  0  0  0  0  0
   -0.3360   -3.3930   -6.4830 C   0  0  0  0  0  1  0  0  0  0  0  0
   -2.8430    6.2850   -8.0720 N   0  0  0  0  0  0  0  0  0  0  0  0
   -3.8420    6.4410   -7.9620 H   0  0  0  0  0  0  0  0  0  0  0  0
   -2.1690    7.1770   -9.2900 S   0  0  0  0  0  0  0  0  0  0  0  0
   -1.6420    8.3750   -8.6780 O   0  0  0  0  0  0  0  0  0  0  0  0
   -1.3500    6.3400  -10.1300 O   0  0  0  0  0  0  0  0  0  0  0  0
   -3.5030    7.6230  -10.1550 N   0  0  0  0  0  0  0  0  0  0  0  0
   -4.1210    6.8450  -10.3930 H   0  0  0  0  0  0  0  0  0  0  0  0
   -3.4240    8.6960  -11.1540 C   0  0  0  0  0  2  0  0  0  0  0  0
   -2.2750    9.6530  -10.8640 C   0  0  0  0  0  2  0  0  0  0  0  0
   -2.7410   10.9070  -10.1620 C   0  0  0  0  0  0  0  0  0  0  0  0
   -4.0960   11.0150  -10.0420 N   0  0  0  0  0  0  0  0  0  0  0  0
   -1.9950   11.7680   -9.7090 O   0  0  0  0  0  0  0  0  0  0  0  0
   -4.4720   11.8280   -9.5700 H   0  0  0  0  0  0  0  0  0  0  0  0
   -4.7400   10.3080  -10.3710 H   0  0  0  0  0  0  0  0  0  0  0  0
  1 12  1  6  0  0  0
  1 18  1  0  0  0  0
  2  1  1  0  0  0  0
  3  4  2  0  0  0  0
  3  2  1  0  0  0  0
  5  3  2  0  0  0  0
  6  3  1  0  0  0  0
  7  6  2  0  0  0  0
  8  7  1  0  0  0  0
  9  8  2  0  0  0  0
  9 10  1  0  0  0  0
 10 11  2  0  0  0  0
 11  6  1  0  0  0  0
 11 12  1  0  0  0  0
 12 14  1  0  0  0  0
 13  2  1  0  0  0  0
 15 25  2  0  0  0  0
 16 15  1  0  0  0  0
 17 16  2  0  0  0  0
 18 16  1  1  0  0  0
 18 19  1  0  0  0  0
 19 26  1  1  0  0  0
 19 20  1  0  0  0  0
 20 25  1  0  0  0  0
 20 21  1  1  0  0  0
 21 22  2  0  0  0  0
 23 22  1  0  0  0  0
 24 23  2  0  0  0  0
 25 24  1  0  0  0  0
 27 26  1  0  0  0  0
 29 28  1  0  0  0  0
 31 29  1  0  0  0  0
 31 30  1  0  0  0  0
 32 31  1  0  0  0  0
 33 34  1  0  0  0  0
 33  8  1  0  0  0  0
 35 36  2  0  0  0  0
 35 33  1  0  0  0  0
 37 35  2  0  0  0  0
 38 35  1  0  0  0  0
 39 38  1  0  0  0  0
 40 41  1  0  0  0  0
 40 38  1  0  0  0  0
 41 42  1  0  0  0  0
 42 43  1  0  0  0  0
 42 44  2  0  0  0  0
 43 45  1  0  0  0  0
 46 43  1  0  0  0  0
M  END
>  <minimizedAffinity>
90.7962723

$$$$
