
 OpenBabel09122222393D

 46 48  0  0  1  0  0  0  0  0999 V2000
    0.2880    1.7590   -4.7870 C   0  0  2  0  0  3  0  0  0  0  0  0
    1.5240    2.0970   -5.1010 N   0  0  0  0  0  0  0  0  0  0  0  0
    1.7870    3.3410   -6.1430 S   0  0  0  0  0  0  0  0  0  0  0  0
    2.0740    4.5640   -5.4340 O   0  0  0  0  0  0  0  0  0  0  0  0
    2.6650    2.8780   -7.1960 O   0  0  0  0  0  0  0  0  0  0  0  0
    0.1790    3.4900   -6.8960 C   0  0  0  0  0  0  0  0  0  0  0  0
   -0.5840    5.0910   -7.1960 C   0  0  0  0  0  3  0  0  0  0  0  0
   -2.3540    5.1710   -7.5650 C   0  0  0  0  0  0  0  0  0  0  0  0
   -3.3620    3.6620   -7.6300 C   0  0  0  0  0  3  0  0  0  0  0  0
   -2.6100    2.0530   -7.2110 C   0  0  0  0  0  3  0  0  0  0  0  0
   -0.8500    1.9760   -6.8140 C   0  0  0  0  0  0  0  0  0  0  0  0
   -0.3510    1.0180   -5.8460 N   0  0  0  0  0  0  0  0  0  0  0  0
    2.0900    1.3240   -5.4170 H   0  0  0  0  0  0  0  0  0  0  0  0
   -1.0920    0.3650   -5.5800 H   0  0  0  0  0  0  0  0  0  0  0  0
   -2.2960    1.0480   -3.1130 N   0  0  0  0  0  0  0  0  0  0  0  0
   -2.1360    2.1830   -4.1350 C   0  0  0  0  0  0  0  0  0  0  0  0
   -3.0110    2.7010   -4.8150 O   0  0  0  0  0  0  0  0  0  0  0  0
   -0.7140    2.6960   -4.1490 C   0  0  1  0  0  3  0  0  0  0  0  0
   -0.4370    3.2720   -2.9630 C   0  0  1  0  0  3  0  0  0  0  0  0
   -1.4680    3.2610   -1.9200 C   0  0  2  0  0  3  0  0  0  0  0  0
   -1.5230    4.2720   -0.9550 C   0  0  0  0  0  3  0  0  0  0  0  0
   -2.5370    4.2530   -0.0090 C   0  0  0  0  0  3  0  0  0  0  0  0
   -3.4580    3.2290   -0.0710 C   0  0  0  0  0  3  0  0  0  0  0  0
   -3.4200    2.2300   -0.9860 N   0  0  0  0  0  0  0  0  0  0  0  0
   -2.4040    2.1900   -1.8820 C   0  0  0  0  0  0  0  0  0  0  0  0
    0.8310    3.6250   -2.5510 O   0  0  0  0  0  0  0  0  0  0  0  0
    1.3070    4.0270   -3.3020 H   0  0  0  0  0  0  0  0  0  0  0  0
   -2.3460   -1.0590   -3.1480 C   0  0  0  0  0  1  0  0  0  0  0  0
   -3.1910   -2.2340   -4.1800 C   0  0  0  0  0  2  0  0  0  0  0  0
   -5.4610   -2.8490   -5.2310 C   0  0  0  0  0  1  0  0  0  0  0  0
   -4.4290   -1.7470   -4.9840 C   0  0  0  0  0  3  0  0  0  0  0  0
   -5.0980   -0.5980   -4.2180 C   0  0  0  0  0  1  0  0  0  0  0  0
   -2.7870    6.4310   -8.0660 N   0  0  0  0  0  0  0  0  0  0  0  0
   -3.7780    6.6380   -7.9710 H   0  0  0  0  0  0  0  0  0  0  0  0
   -2.0660    7.2300   -9.3220 S   0  0  0  0  0  0  0  0  0  0  0  0
   -1.6750    8.5250   -8.8140 O   0  0  0  0  0  0  0  0  0  0  0  0
   -1.1230    6.3690   -9.9900 O   0  0  0  0  0  0  0  0  0  0  0  0
   -3.3450    7.4760  -10.3380 N   0  0  0  0  0  0  0  0  0  0  0  0
   -3.5630    6.6720  -10.9300 H   0  0  0  0  0  0  0  0  0  0  0  0
   -3.5750    8.7920  -10.9480 C   0  0  0  0  0  2  0  0  0  0  0  0
   -2.3810    9.7180  -10.7570 C   0  0  0  0  0  2  0  0  0  0  0  0
   -2.7970   11.1010  -10.3140 C   0  0  0  0  0  0  0  0  0  0  0  0
   -2.0330   11.6260   -9.3130 N   0  0  0  0  0  0  0  0  0  0  0  0
   -3.7260   11.7370  -10.8010 O   0  0  0  0  0  0  0  0  0  0  0  0
   -2.2530   12.5550   -8.9800 H   0  0  0  0  0  0  0  0  0  0  0  0
   -1.2380   11.1460   -8.9130 H   0  0  0  0  0  0  0  0  0  0  0  0
  1 12  1  6  0  0  0
  1 18  1  0  0  0  0
  2  1  1  0  0  0  0
  3  4  2  0  0  0  0
  3  2  1  0  0  0  0
  5  3  2  0  0  0  0
  6 11  1  0  0  0  0
  6  3  1  0  0  0  0
  7  6  2  0  0  0  0
  8  7  1  0  0  0  0
  9  8  2  0  0  0  0
  9 10  1  0  0  0  0
 10 11  2  0  0  0  0
 11 12  1  0  0  0  0
 12 14  1  0  0  0  0
 13  2  1  0  0  0  0
 15 25  2  0  0  0  0
 16 15  1  0  0  0  0
 17 16  2  0  0  0  0
 18 16  1  1  0  0  0
 18 19  1  0  0  0  0
 19 26  1  1  0  0  0
 19 20  1  0  0  0  0
 20 25  1  0  0  0  0
 20 21  1  1  0  0  0
 21 22  2  0  0  0  0
 23 22  1  0  0  0  0
 24 23  2  0  0  0  0
 25 24  1  0  0  0  0
 27 26  1  0  0  0  0
 29 28  1  0  0  0  0
 30 31  1  0  0  0  0
 31 32  1  0  0  0  0
 31 29  1  0  0  0  0
 33 34  1  0  0  0  0
 33  8  1  0  0  0  0
 35 36  2  0  0  0  0
 35 33  1  0  0  0  0
 37 35  2  0  0  0  0
 38 35  1  0  0  0  0
 39 38  1  0  0  0  0
 40 41  1  0  0  0  0
 40 38  1  0  0  0  0
 41 42  1  0  0  0  0
 42 43  1  0  0  0  0
 43 45  1  0  0  0  0
 43 46  1  0  0  0  0
 44 42  2  0  0  0  0
M  END
>  <minimizedAffinity>
88.3906326

$$$$
