
 OpenBabel09122217533D

 46 48  0  0  1  0  0  0  0  0999 V2000
    0.2880    1.7590   -4.7870 C   0  0  2  0  0  3  0  0  0  0  0  0
    1.5240    2.0970   -5.1010 N   0  0  0  0  0  0  0  0  0  0  0  0
    1.7870    3.3410   -6.1430 S   0  0  0  0  0  0  0  0  0  0  0  0
    2.0740    4.5640   -5.4340 O   0  0  0  0  0  0  0  0  0  0  0  0
    2.6650    2.8780   -7.1960 O   0  0  0  0  0  0  0  0  0  0  0  0
    0.1790    3.4900   -6.8960 C   0  0  0  0  0  0  0  0  0  0  0  0
   -0.5840    5.0910   -7.1960 C   0  0  0  0  0  3  0  0  0  0  0  0
   -2.3540    5.1710   -7.5650 C   0  0  0  0  0  0  0  0  0  0  0  0
   -3.3620    3.6620   -7.6300 C   0  0  0  0  0  3  0  0  0  0  0  0
   -2.6100    2.0530   -7.2110 C   0  0  0  0  0  3  0  0  0  0  0  0
   -0.8500    1.9760   -6.8140 C   0  0  0  0  0  0  0  0  0  0  0  0
   -0.3510    1.0180   -5.8460 N   0  0  0  0  0  0  0  0  0  0  0  0
    2.0900    1.3240   -5.4170 H   0  0  0  0  0  0  0  0  0  0  0  0
   -1.0920    0.3650   -5.5800 H   0  0  0  0  0  0  0  0  0  0  0  0
   -2.2960    1.0480   -3.1130 N   0  0  0  0  0  0  0  0  0  0  0  0
   -2.1360    2.1830   -4.1350 C   0  0  0  0  0  0  0  0  0  0  0  0
   -3.0110    2.7010   -4.8150 O   0  0  0  0  0  0  0  0  0  0  0  0
   -0.7140    2.6960   -4.1490 C   0  0  1  0  0  3  0  0  0  0  0  0
   -0.4370    3.2720   -2.9630 C   0  0  1  0  0  3  0  0  0  0  0  0
   -1.4680    3.2610   -1.9200 C   0  0  2  0  0  3  0  0  0  0  0  0
   -1.5230    4.2720   -0.9550 C   0  0  0  0  0  3  0  0  0  0  0  0
   -2.5370    4.2530   -0.0090 C   0  0  0  0  0  3  0  0  0  0  0  0
   -3.4580    3.2290   -0.0710 C   0  0  0  0  0  3  0  0  0  0  0  0
   -3.4200    2.2300   -0.9860 N   0  0  0  0  0  0  0  0  0  0  0  0
   -2.4040    2.1900   -1.8820 C   0  0  0  0  0  0  0  0  0  0  0  0
    0.8310    3.6250   -2.5510 O   0  0  0  0  0  0  0  0  0  0  0  0
    1.3070    4.0270   -3.3020 H   0  0  0  0  0  0  0  0  0  0  0  0
   -2.3460   -1.0590   -3.1480 C   0  0  0  0  0  1  0  0  0  0  0  0
   -3.1910   -2.2340   -4.1800 C   0  0  0  0  0  2  0  0  0  0  0  0
   -5.4610   -2.8490   -5.2310 C   0  0  0  0  0  1  0  0  0  0  0  0
   -4.4290   -1.7470   -4.9840 C   0  0  0  0  0  3  0  0  0  0  0  0
   -5.0980   -0.5980   -4.2180 C   0  0  0  0  0  1  0  0  0  0  0  0
   -2.7870    6.4310   -8.0660 N   0  0  0  0  0  0  0  0  0  0  0  0
   -3.7780    6.6380   -7.9710 H   0  0  0  0  0  0  0  0  0  0  0  0
   -2.0660    7.2300   -9.3220 S   0  0  0  0  0  0  0  0  0  0  0  0
   -1.6750    8.5250   -8.8140 O   0  0  0  0  0  0  0  0  0  0  0  0
   -1.1230    6.3690   -9.9900 O   0  0  0  0  0  0  0  0  0  0  0  0
   -3.3450    7.4760  -10.3380 N   0  0  0  0  0  0  0  0  0  0  0  0
   -3.5630    6.6720  -10.9300 H   0  0  0  0  0  0  0  0  0  0  0  0
   -3.5750    8.7920  -10.9480 C   0  0  0  0  0  2  0  0  0  0  0  0
   -2.3810    9.7180  -10.7570 C   0  0  0  0  0  2  0  0  0  0  0  0
   -2.7970   11.1010  -10.3140 C   0  0  0  0  0  0  0  0  0  0  0  0
   -2.0330   11.6260   -9.3130 N   0  0  0  0  0  0  0  0  0  0  0  0
   -3.7260   11.7370  -10.8010 O   0  0  0  0  0  0  0  0  0  0  0  0
   -2.2530   12.5550   -8.9800 H   0  0  0  0  0  0  0  0  0  0  0  0
   -1.2380   11.1460   -8.9130 H   0  0  0  0  0  0  0  0  0  0  0  0
  1 12  1  6  0  0  0
  1 18  1  0  0  0  0
  2  1  1  0  0  0  0
  3  4  2  0  0  0  0
  3  2  1  0  0  0  0
  5  3  2  0  0  0  0
  6 11  1  0  0  0  0
  6  3  1  0  0  0  0
  7  6  2  0  0  0  0
  8  7  1  0  0  0  0
  9  8  2  0  0  0  0
  9 10  1  0  0  0  0
 10 11  2  0  0  0  0
 11 12  1  0  0  0  0
 12 14  1  0  0  0  0
 13  2  1  0  0  0  0
 15 25  2  0  0  0  0
 16 15  1  0  0  0  0
 17 16  2  0  0  0  0
 18 16  1  1  0  0  0
 18 19  1  0  0  0  0
 19 26  1  1  0  0  0
 19 20  1  0  0  0  0
 20 25  1  0  0  0  0
 20 21  1  1  0  0  0
 21 22  2  0  0  0  0
 23 22  1  0  0  0  0
 24 23  2  0  0  0  0
 25 24  1  0  0  0  0
 27 26  1  0  0  0  0
 29 28  1  0  0  0  0
 30 31  1  0  0  0  0
 31 32  1  0  0  0  0
 31 29  1  0  0  0  0
 33 34  1  0  0  0  0
 33  8  1  0  0  0  0
 35 36  2  0  0  0  0
 35 33  1  0  0  0  0
 37 35  2  0  0  0  0
 38 35  1  0  0  0  0
 39 38  1  0  0  0  0
 40 41  1  0  0  0  0
 40 38  1  0  0  0  0
 41 42  1  0  0  0  0
 42 43  1  0  0  0  0
 43 45  1  0  0  0  0
 43 46  1  0  0  0  0
 44 42  2  0  0  0  0
M  END
>  <minimizedAffinity>
88.3906326

$$$$

 OpenBabel09122217533D

 46 48  0  0  1  0  0  0  0  0999 V2000
    0.3860    1.6010   -4.9640 C   0  0  2  0  0  3  0  0  0  0  0  0
    1.6100    2.0390   -5.1920 N   0  0  0  0  0  0  0  0  0  0  0  0
    1.8350    3.3680   -6.1340 S   0  0  0  0  0  0  0  0  0  0  0  0
    2.0070    4.5530   -5.3300 O   0  0  0  0  0  0  0  0  0  0  0  0
    2.7900    3.0370   -7.1700 O   0  0  0  0  0  0  0  0  0  0  0  0
    0.2570    3.4660   -6.9550 C   0  0  0  0  0  0  0  0  0  0  0  0
   -0.5970    5.0310   -7.1850 C   0  0  0  0  0  3  0  0  0  0  0  0
   -2.3500    5.0240   -7.6350 C   0  0  0  0  0  0  0  0  0  0  0  0
   -3.2500    3.4610   -7.8510 C   0  0  0  0  0  3  0  0  0  0  0  0
   -2.4110    1.8780   -7.5050 C   0  0  0  0  0  3  0  0  0  0  0  0
   -0.6700    1.8870   -7.0260 C   0  0  0  0  0  0  0  0  0  0  0  0
   -0.1530    0.8970   -6.1010 N   0  0  0  0  0  0  0  0  0  0  0  0
    2.2400    1.3280   -5.5300 H   0  0  0  0  0  0  0  0  0  0  0  0
   -0.8590    0.1810   -5.9160 H   0  0  0  0  0  0  0  0  0  0  0  0
   -2.0530    0.6210   -3.2090 N   0  0  0  0  0  0  0  0  0  0  0  0
   -2.0540    1.7460   -4.2540 C   0  0  0  0  0  0  0  0  0  0  0  0
   -3.0010    2.1430   -4.9200 O   0  0  0  0  0  0  0  0  0  0  0  0
   -0.7040    2.4250   -4.3150 C   0  0  1  0  0  3  0  0  0  0  0  0
   -0.4700    3.0530   -3.1470 C   0  0  1  0  0  3  0  0  0  0  0  0
   -1.4660    2.9410   -2.0760 C   0  0  2  0  0  3  0  0  0  0  0  0
   -1.6180    3.9570   -1.1280 C   0  0  0  0  0  3  0  0  0  0  0  0
   -2.5990    3.8360   -0.1550 C   0  0  0  0  0  3  0  0  0  0  0  0
   -3.3920    2.7080   -0.1750 C   0  0  0  0  0  3  0  0  0  0  0  0
   -3.2580    1.7030   -1.0740 N   0  0  0  0  0  0  0  0  0  0  0  0
   -2.2670    1.7660   -1.9960 C   0  0  0  0  0  0  0  0  0  0  0  0
    0.7570    3.5620   -2.7750 O   0  0  0  0  0  0  0  0  0  0  0  0
    1.1630    4.0030   -3.5450 H   0  0  0  0  0  0  0  0  0  0  0  0
   -1.8510   -1.4780   -3.2080 C   0  0  0  0  0  1  0  0  0  0  0  0
   -1.7180   -2.6830   -4.5080 C   0  0  0  0  0  2  0  0  0  0  0  0
    0.2410   -4.3340   -4.2450 C   0  0  0  0  0  1  0  0  0  0  0  0
   -0.2970   -3.1020   -4.9760 C   0  0  0  0  0  3  0  0  0  0  0  0
   -0.3360   -3.3930   -6.4830 C   0  0  0  0  0  1  0  0  0  0  0  0
   -2.8430    6.2850   -8.0720 N   0  0  0  0  0  0  0  0  0  0  0  0
   -3.8420    6.4410   -7.9620 H   0  0  0  0  0  0  0  0  0  0  0  0
   -2.1690    7.1770   -9.2900 S   0  0  0  0  0  0  0  0  0  0  0  0
   -1.6420    8.3750   -8.6780 O   0  0  0  0  0  0  0  0  0  0  0  0
   -1.3500    6.3400  -10.1300 O   0  0  0  0  0  0  0  0  0  0  0  0
   -3.5030    7.6230  -10.1550 N   0  0  0  0  0  0  0  0  0  0  0  0
   -4.1210    6.8450  -10.3930 H   0  0  0  0  0  0  0  0  0  0  0  0
   -3.4240    8.6960  -11.1540 C   0  0  0  0  0  2  0  0  0  0  0  0
   -2.2750    9.6530  -10.8640 C   0  0  0  0  0  2  0  0  0  0  0  0
   -2.7410   10.9070  -10.1620 C   0  0  0  0  0  0  0  0  0  0  0  0
   -4.0960   11.0150  -10.0420 N   0  0  0  0  0  0  0  0  0  0  0  0
   -1.9950   11.7680   -9.7090 O   0  0  0  0  0  0  0  0  0  0  0  0
   -4.4720   11.8280   -9.5700 H   0  0  0  0  0  0  0  0  0  0  0  0
   -4.7400   10.3080  -10.3710 H   0  0  0  0  0  0  0  0  0  0  0  0
  1 12  1  6  0  0  0
  1 18  1  0  0  0  0
  2  1  1  0  0  0  0
  3  4  2  0  0  0  0
  3  2  1  0  0  0  0
  5  3  2  0  0  0  0
  6  3  1  0  0  0  0
  7  6  2  0  0  0  0
  8  7  1  0  0  0  0
  9  8  2  0  0  0  0
  9 10  1  0  0  0  0
 10 11  2  0  0  0  0
 11  6  1  0  0  0  0
 11 12  1  0  0  0  0
 12 14  1  0  0  0  0
 13  2  1  0  0  0  0
 15 25  2  0  0  0  0
 16 15  1  0  0  0  0
 17 16  2  0  0  0  0
 18 16  1  1  0  0  0
 18 19  1  0  0  0  0
 19 26  1  1  0  0  0
 19 20  1  0  0  0  0
 20 25  1  0  0  0  0
 20 21  1  1  0  0  0
 21 22  2  0  0  0  0
 23 22  1  0  0  0  0
 24 23  2  0  0  0  0
 25 24  1  0  0  0  0
 27 26  1  0  0  0  0
 29 28  1  0  0  0  0
 31 29  1  0  0  0  0
 31 30  1  0  0  0  0
 32 31  1  0  0  0  0
 33 34  1  0  0  0  0
 33  8  1  0  0  0  0
 35 36  2  0  0  0  0
 35 33  1  0  0  0  0
 37 35  2  0  0  0  0
 38 35  1  0  0  0  0
 39 38  1  0  0  0  0
 40 41  1  0  0  0  0
 40 38  1  0  0  0  0
 41 42  1  0  0  0  0
 42 43  1  0  0  0  0
 42 44  2  0  0  0  0
 43 45  1  0  0  0  0
 46 43  1  0  0  0  0
M  END
>  <minimizedAffinity>
90.7962723

$$$$
