
 OpenBabel09122222393D

 42 47  0  0  0  0  0  0  0  0999 V2000
    4.4690   -0.1610   11.7670 C   0  0  0  0  0  0  0  0  0  0  0  0
    4.0430    0.9400   11.0280 C   0  0  0  0  0  3  0  0  0  0  0  0
    4.7420    2.1480   11.1240 C   0  0  0  0  0  3  0  0  0  0  0  0
    5.8890    2.2420   11.9260 C   0  0  0  0  0  0  0  0  0  0  0  0
    6.2790    1.1340   12.6900 C   0  0  0  0  0  3  0  0  0  0  0  0
    5.5770   -0.0700   12.6040 C   0  0  0  0  0  3  0  0  0  0  0  0
    6.6970    3.4650   11.9620 C   0  0  0  0  0  0  0  0  0  0  0  0
    6.8140    4.2460   13.0190 N   0  0  0  0  0  0  0  0  0  0  0  0
    7.6630    5.2630   12.6600 C   0  0  0  0  0  0  0  0  0  0  0  0
    8.1100    6.3640   13.4120 C   0  0  0  0  0  3  0  0  0  0  0  0
    8.9970    7.2960   12.8360 C   0  0  0  0  0  0  0  0  0  0  0  0
    9.4130    7.1000   11.5100 C   0  0  0  0  0  3  0  0  0  0  0  0
    8.9790    6.0110   10.7440 C   0  0  0  0  0  3  0  0  0  0  0  0
    8.1030    5.1000   11.3500 C   0  0  0  0  0  0  0  0  0  0  0  0
    7.5020    3.9290   10.9290 N   0  0  0  0  0  0  0  0  0  0  0  0
    7.7240    3.2570    9.6500 C   0  0  0  0  0  3  0  0  0  0  0  0
    7.6640    4.2270    8.4600 C   0  0  0  0  0  2  0  0  0  0  0  0
    7.8430    3.4940    7.1320 C   0  0  0  0  0  2  0  0  0  0  0  0
    9.1160    2.6520    7.1200 C   0  0  0  0  0  2  0  0  0  0  0  0
    9.1560    1.6740    8.2920 C   0  0  0  0  0  2  0  0  0  0  0  0
    8.9960    2.3920    9.6310 C   0  0  0  0  0  2  0  0  0  0  0  0
    9.5010    8.4870   13.6280 C   0  0  0  0  0  0  0  0  0  0  0  0
    9.0470    9.6330   13.3200 O   0  0  0  0  0  0  0  0  0  0  0  0
   10.3480    8.2510   14.5500 O   0  0  0  0  0  1  0  0  0  0  0  0
    3.8720   -1.3730   11.5780 O   0  0  0  0  0  0  0  0  0  0  0  0
    4.7850   -2.3730   11.1110 C   0  0  0  0  0  2  0  0  0  0  0  0
    4.0140   -2.0000    7.3880 C   0  0  0  0  0  0  0  0  0  0  0  0
    5.2900   -2.0690    6.8210 C   0  0  0  0  0  3  0  0  0  0  0  0
    6.4200   -2.2240    7.6240 C   0  0  0  0  0  3  0  0  0  0  0  0
    6.3180   -2.3180    9.0250 C   0  0  0  0  0  0  0  0  0  0  0  0
    5.0340   -2.3070    9.6150 C   0  0  0  0  0  0  0  0  0  0  0  0
    3.9050   -2.1350    8.7830 C   0  0  0  0  0  3  0  0  0  0  0  0
    7.5660   -2.3840    9.8000 C   0  0  0  0  0  0  0  0  0  0  0  0
    8.1560   -1.2110   10.2980 C   0  0  0  0  0  3  0  0  0  0  0  0
    9.3580   -1.2640   11.0100 C   0  0  0  0  0  3  0  0  0  0  0  0
    9.9770   -2.4920   11.2290 C   0  0  0  0  0  0  0  0  0  0  0  0
   11.4590   -2.5570   12.1030 Cl  0  0  0  0  0  0  0  0  0  0  0  0
    9.4090   -3.6660   10.7410 C   0  0  0  0  0  3  0  0  0  0  0  0
    8.2110   -3.6090   10.0250 C   0  0  0  0  0  3  0  0  0  0  0  0
    2.7600   -2.3230    5.3890 O   0  0  0  0  0  0  0  0  0  0  0  0
    2.7900   -1.7550    6.5260 C   0  0  0  0  0  0  0  0  0  0  0  0
    1.8740   -1.0200    7.0150 O   0  0  0  0  0  1  0  0  0  0  0  0
  1  6  1  0  0  0  0
  2  3  1  0  0  0  0
  2  1  2  0  0  0  0
  3  4  2  0  0  0  0
  4  7  1  0  0  0  0
  4  5  1  0  0  0  0
  6  5  2  0  0  0  0
  7  8  2  0  0  0  0
  9  8  1  0  0  0  0
  9 10  1  0  0  0  0
 11 10  2  0  0  0  0
 11 22  1  0  0  0  0
 12 11  1  0  0  0  0
 13 14  1  0  0  0  0
 13 12  2  0  0  0  0
 14  9  2  0  0  0  0
 15 14  1  0  0  0  0
 15  7  1  0  0  0  0
 16 15  1  0  0  0  0
 17 16  1  0  0  0  0
 18 17  1  0  0  0  0
 19 18  1  0  0  0  0
 19 20  1  0  0  0  0
 20 21  1  0  0  0  0
 21 16  1  0  0  0  0
 22 24  1  0  0  0  0
 23 22  2  0  0  0  0
 25  1  1  0  0  0  0
 26 25  1  0  0  0  0
 27 32  1  0  0  0  0
 28 27  2  0  0  0  0
 28 29  1  0  0  0  0
 29 30  2  0  0  0  0
 30 31  1  0  0  0  0
 30 33  1  0  0  0  0
 31 26  1  0  0  0  0
 32 31  2  0  0  0  0
 33 39  2  0  0  0  0
 33 34  1  0  0  0  0
 34 35  2  0  0  0  0
 35 36  1  0  0  0  0
 36 37  1  0  0  0  0
 38 36  2  0  0  0  0
 39 38  1  0  0  0  0
 40 41  2  0  0  0  0
 41 42  1  0  0  0  0
 41 27  1  0  0  0  0
M  END
>  <minimizedAffinity>
-7.54565716

$$$$
