
 OpenBabel09122222393D

 42 47  0  0  0  0  0  0  0  0999 V2000
    5.1170   -0.0440   12.5750 C   0  0  0  0  0  0  0  0  0  0  0  0
    4.4630    0.9400   11.8370 C   0  0  0  0  0  3  0  0  0  0  0  0
    5.0440    2.2040   11.7020 C   0  0  0  0  0  3  0  0  0  0  0  0
    6.2990    2.4720   12.2710 C   0  0  0  0  0  0  0  0  0  0  0  0
    6.9240    1.4810   13.0400 C   0  0  0  0  0  3  0  0  0  0  0  0
    6.3400    0.2200   13.1840 C   0  0  0  0  0  3  0  0  0  0  0  0
    6.9760    3.7550   12.0560 C   0  0  0  0  0  0  0  0  0  0  0  0
    7.0340    4.7210   12.9520 N   0  0  0  0  0  0  0  0  0  0  0  0
    7.7650    5.7350   12.3850 C   0  0  0  0  0  0  0  0  0  0  0  0
    8.1110    6.9920   12.9100 C   0  0  0  0  0  3  0  0  0  0  0  0
    8.8850    7.8870   12.1430 C   0  0  0  0  0  0  0  0  0  0  0  0
    9.2890    7.4960   10.8570 C   0  0  0  0  0  3  0  0  0  0  0  0
    8.9550    6.2490   10.3150 C   0  0  0  0  0  3  0  0  0  0  0  0
    8.1920    5.3820   11.1080 C   0  0  0  0  0  0  0  0  0  0  0  0
    7.7070    4.1000   10.9260 N   0  0  0  0  0  0  0  0  0  0  0  0
    7.9690    3.2340    9.7790 C   0  0  0  0  0  3  0  0  0  0  0  0
    7.7690    3.9570    8.4390 C   0  0  0  0  0  2  0  0  0  0  0  0
    7.9960    3.0170    7.2570 C   0  0  0  0  0  2  0  0  0  0  0  0
    9.3540    2.3260    7.3380 C   0  0  0  0  0  2  0  0  0  0  0  0
    9.5340    1.5890    8.6620 C   0  0  0  0  0  2  0  0  0  0  0  0
    9.3290    2.5190    9.8570 C   0  0  0  0  0  2  0  0  0  0  0  0
    9.2790    9.2450   12.6890 C   0  0  0  0  0  0  0  0  0  0  0  0
    9.7810   10.0840   11.8760 O   0  0  0  0  0  0  0  0  0  0  0  0
    9.0790    9.4490   13.9310 O   0  0  0  0  0  1  0  0  0  0  0  0
    4.6180   -1.3140   12.6000 O   0  0  0  0  0  0  0  0  0  0  0  0
    4.2870   -1.8040   11.2950 C   0  0  0  0  0  2  0  0  0  0  0  0
    7.4480   -3.9330   11.0450 C   0  0  0  0  0  0  0  0  0  0  0  0
    7.5130   -4.1950    9.6740 C   0  0  0  0  0  3  0  0  0  0  0  0
    6.5350   -3.7040    8.8070 C   0  0  0  0  0  3  0  0  0  0  0  0
    5.4590   -2.9290    9.2790 C   0  0  0  0  0  0  0  0  0  0  0  0
    5.4050   -2.6060   10.6540 C   0  0  0  0  0  0  0  0  0  0  0  0
    6.3980   -3.1250   11.5130 C   0  0  0  0  0  3  0  0  0  0  0  0
    4.4240   -2.5330    8.3120 C   0  0  0  0  0  0  0  0  0  0  0  0
    3.7200   -3.5060    7.5850 C   0  0  0  0  0  3  0  0  0  0  0  0
    2.7560   -3.1360    6.6430 C   0  0  0  0  0  3  0  0  0  0  0  0
    2.4900   -1.7870    6.4220 C   0  0  0  0  0  0  0  0  0  0  0  0
    1.3050   -1.3290    5.2590 Cl  0  0  0  0  0  0  0  0  0  0  0  0
    3.1790   -0.8060    7.1310 C   0  0  0  0  0  3  0  0  0  0  0  0
    4.1460   -1.1800    8.0680 C   0  0  0  0  0  3  0  0  0  0  0  0
    8.5240   -5.7970   12.0660 O   0  0  0  0  0  0  0  0  0  0  0  0
    8.4660   -4.5290   12.0010 C   0  0  0  0  0  0  0  0  0  0  0  0
    9.2010   -3.7160   12.6450 O   0  0  0  0  0  1  0  0  0  0  0  0
  1 25  1  0  0  0  0
  1  6  1  0  0  0  0
  2  1  2  0  0  0  0
  3  2  1  0  0  0  0
  3  4  2  0  0  0  0
  4  5  1  0  0  0  0
  5  6  2  0  0  0  0
  7  4  1  0  0  0  0
  7  8  2  0  0  0  0
  9 10  1  0  0  0  0
  9  8  1  0  0  0  0
 11 22  1  0  0  0  0
 11 10  2  0  0  0  0
 12 11  1  0  0  0  0
 13 12  2  0  0  0  0
 13 14  1  0  0  0  0
 14  9  2  0  0  0  0
 15 14  1  0  0  0  0
 15  7  1  0  0  0  0
 16 21  1  0  0  0  0
 16 15  1  0  0  0  0
 17 16  1  0  0  0  0
 18 19  1  0  0  0  0
 18 17  1  0  0  0  0
 19 20  1  0  0  0  0
 20 21  1  0  0  0  0
 22 24  1  0  0  0  0
 23 22  2  0  0  0  0
 26 25  1  0  0  0  0
 27 32  1  0  0  0  0
 27 41  1  0  0  0  0
 28 27  2  0  0  0  0
 29 30  2  0  0  0  0
 29 28  1  0  0  0  0
 30 31  1  0  0  0  0
 31 26  1  0  0  0  0
 31 32  2  0  0  0  0
 33 30  1  0  0  0  0
 34 33  2  0  0  0  0
 35 34  1  0  0  0  0
 36 35  2  0  0  0  0
 36 38  1  0  0  0  0
 37 36  1  0  0  0  0
 38 39  2  0  0  0  0
 39 33  1  0  0  0  0
 41 40  2  0  0  0  0
 41 42  1  0  0  0  0
M  END
>  <minimizedAffinity>
-6.99146891

$$$$
