
 OpenBabel09122222393D

 42 47  0  0  0  0  0  0  0  0999 V2000
    9.8210   -2.1080    4.8790 C   0  0  0  0  0  0  0  0  0  0  0  0
    8.6200   -2.5350    5.4390 C   0  0  0  0  0  3  0  0  0  0  0  0
    8.0970   -1.8620    6.5470 C   0  0  0  0  0  3  0  0  0  0  0  0
    8.7530   -0.7370    7.0690 C   0  0  0  0  0  0  0  0  0  0  0  0
    9.9790   -0.3450    6.5140 C   0  0  0  0  0  3  0  0  0  0  0  0
   10.5090   -1.0220    5.4130 C   0  0  0  0  0  3  0  0  0  0  0  0
    8.1710    0.0480    8.1630 C   0  0  0  0  0  0  0  0  0  0  0  0
    8.6970    1.1610    8.6370 N   0  0  0  0  0  0  0  0  0  0  0  0
    7.8540    1.5980    9.6290 C   0  0  0  0  0  0  0  0  0  0  0  0
    7.9570    2.7280   10.4580 C   0  0  0  0  0  3  0  0  0  0  0  0
    6.9580    2.9900   11.4190 C   0  0  0  0  0  0  0  0  0  0  0  0
    5.8770    2.1010   11.5250 C   0  0  0  0  0  3  0  0  0  0  0  0
    5.7560    0.9700   10.7090 C   0  0  0  0  0  3  0  0  0  0  0  0
    6.7620    0.7440    9.7610 C   0  0  0  0  0  0  0  0  0  0  0  0
    6.9640   -0.2240    8.7940 N   0  0  0  0  0  0  0  0  0  0  0  0
    6.0410   -1.3030    8.4490 C   0  0  0  0  0  3  0  0  0  0  0  0
    5.9560   -2.3750    9.5460 C   0  0  0  0  0  2  0  0  0  0  0  0
    5.0280   -3.5180    9.1390 C   0  0  0  0  0  2  0  0  0  0  0  0
    3.6500   -3.0080    8.7280 C   0  0  0  0  0  2  0  0  0  0  0  0
    3.7430   -1.9620    7.6200 C   0  0  0  0  0  2  0  0  0  0  0  0
    4.6530   -0.8000    8.0170 C   0  0  0  0  0  2  0  0  0  0  0  0
    7.0400    4.2070   12.3190 C   0  0  0  0  0  0  0  0  0  0  0  0
    7.6440    5.2310   11.8700 O   0  0  0  0  0  0  0  0  0  0  0  0
    6.4940    4.1150   13.4670 O   0  0  0  0  0  1  0  0  0  0  0  0
   10.2680   -2.6780    3.7220 O   0  0  0  0  0  0  0  0  0  0  0  0
    9.5930   -2.1760    2.5620 C   0  0  0  0  0  2  0  0  0  0  0  0
    7.1580   -4.9280    1.5200 C   0  0  0  0  0  0  0  0  0  0  0  0
    7.6270   -5.2620    0.2460 C   0  0  0  0  0  3  0  0  0  0  0  0
    8.7260   -4.6010   -0.3050 C   0  0  0  0  0  3  0  0  0  0  0  0
    9.3980   -3.5830    0.3970 C   0  0  0  0  0  0  0  0  0  0  0  0
    8.9750   -3.2680    1.7080 C   0  0  0  0  0  0  0  0  0  0  0  0
    7.8530   -3.9410    2.2400 C   0  0  0  0  0  3  0  0  0  0  0  0
   10.4840   -2.8750   -0.2970 C   0  0  0  0  0  0  0  0  0  0  0  0
   10.2430   -1.6420   -0.9240 C   0  0  0  0  0  3  0  0  0  0  0  0
   11.2630   -0.9780   -1.6100 C   0  0  0  0  0  3  0  0  0  0  0  0
   12.5340   -1.5440   -1.6720 C   0  0  0  0  0  0  0  0  0  0  0  0
   13.7920   -0.7280   -2.5200 Cl  0  0  0  0  0  0  0  0  0  0  0  0
   12.7940   -2.7670   -1.0580 C   0  0  0  0  0  3  0  0  0  0  0  0
   11.7700   -3.4310   -0.3780 C   0  0  0  0  0  3  0  0  0  0  0  0
    5.8130   -6.8490    1.9420 O   0  0  0  0  0  0  0  0  0  0  0  0
    5.9180   -5.5910    2.0920 C   0  0  0  0  0  0  0  0  0  0  0  0
    5.0900   -4.8420    2.7010 O   0  0  0  0  0  1  0  0  0  0  0  0
  1  6  2  0  0  0  0
  1  2  1  0  0  0  0
  2  3  2  0  0  0  0
  3  4  1  0  0  0  0
  4  7  1  0  0  0  0
  5  4  2  0  0  0  0
  6  5  1  0  0  0  0
  7  8  2  0  0  0  0
  7 15  1  0  0  0  0
  8  9  1  0  0  0  0
  9 14  2  0  0  0  0
  9 10  1  0  0  0  0
 10 11  2  0  0  0  0
 11 12  1  0  0  0  0
 11 22  1  0  0  0  0
 13 12  2  0  0  0  0
 14 13  1  0  0  0  0
 15 14  1  0  0  0  0
 16 15  1  0  0  0  0
 16 17  1  0  0  0  0
 18 17  1  0  0  0  0
 19 18  1  0  0  0  0
 20 21  1  0  0  0  0
 20 19  1  0  0  0  0
 21 16  1  0  0  0  0
 22 24  1  0  0  0  0
 23 22  2  0  0  0  0
 25  1  1  0  0  0  0
 26 25  1  0  0  0  0
 27 41  1  0  0  0  0
 27 32  1  0  0  0  0
 28 27  2  0  0  0  0
 29 28  1  0  0  0  0
 29 30  2  0  0  0  0
 30 31  1  0  0  0  0
 31 32  2  0  0  0  0
 31 26  1  0  0  0  0
 33 30  1  0  0  0  0
 34 33  2  0  0  0  0
 35 34  1  0  0  0  0
 36 35  2  0  0  0  0
 36 38  1  0  0  0  0
 37 36  1  0  0  0  0
 38 39  2  0  0  0  0
 39 33  1  0  0  0  0
 40 41  2  0  0  0  0
 41 42  1  0  0  0  0
M  END
>  <minimizedAffinity>
-7.35282755

$$$$
