
 OpenBabel09122222393D

 42 47  0  0  0  0  0  0  0  0999 V2000
   11.5380    3.4700    4.6420 C   0  0  0  0  0  0  0  0  0  0  0  0
   10.2770    3.7020    5.1870 C   0  0  0  0  0  3  0  0  0  0  0  0
   10.1350    4.6180    6.2340 C   0  0  0  0  0  3  0  0  0  0  0  0
   11.2460    5.3320    6.7080 C   0  0  0  0  0  0  0  0  0  0  0  0
   12.5120    5.0570    6.1720 C   0  0  0  0  0  3  0  0  0  0  0  0
   12.6580    4.1350    5.1330 C   0  0  0  0  0  3  0  0  0  0  0  0
   11.1050    6.3710    7.7330 C   0  0  0  0  0  0  0  0  0  0  0  0
   11.4920    7.6230    7.5760 N   0  0  0  0  0  0  0  0  0  0  0  0
   11.1730    8.2780    8.7400 C   0  0  0  0  0  0  0  0  0  0  0  0
   11.3800    9.6210    9.0970 C   0  0  0  0  0  3  0  0  0  0  0  0
   10.9610   10.0860   10.3610 C   0  0  0  0  0  0  0  0  0  0  0  0
   10.3440    9.1830   11.2400 C   0  0  0  0  0  3  0  0  0  0  0  0
   10.1280    7.8410   10.9030 C   0  0  0  0  0  3  0  0  0  0  0  0
   10.5510    7.4140    9.6370 C   0  0  0  0  0  0  0  0  0  0  0  0
   10.4860    6.2080    8.9660 N   0  0  0  0  0  0  0  0  0  0  0  0
    9.8260    4.9930    9.4370 C   0  0  0  0  0  3  0  0  0  0  0  0
   10.4970    4.4080   10.6890 C   0  0  0  0  0  2  0  0  0  0  0  0
    9.8230    3.1100   11.1290 C   0  0  0  0  0  2  0  0  0  0  0  0
    8.3200    3.2910   11.3180 C   0  0  0  0  0  2  0  0  0  0  0  0
    7.6570    3.8490   10.0610 C   0  0  0  0  0  2  0  0  0  0  0  0
    8.3070    5.1580    9.6160 C   0  0  0  0  0  2  0  0  0  0  0  0
   11.1650   11.5330   10.7680 C   0  0  0  0  0  0  0  0  0  0  0  0
   10.2320   12.3550   10.5040 O   0  0  0  0  0  0  0  0  0  0  0  0
   12.2610   11.8210   11.3480 O   0  0  0  0  0  1  0  0  0  0  0  0
   11.6610    2.6780    3.5380 O   0  0  0  0  0  0  0  0  0  0  0  0
   12.2310    3.3720    2.4210 C   0  0  0  0  0  2  0  0  0  0  0  0
   10.1290    6.4160    1.4680 C   0  0  0  0  0  0  0  0  0  0  0  0
    9.4580    5.9590    0.3300 C   0  0  0  0  0  3  0  0  0  0  0  0
    9.6770    4.6700   -0.1570 C   0  0  0  0  0  3  0  0  0  0  0  0
   10.5750    3.7880    0.4750 C   0  0  0  0  0  0  0  0  0  0  0  0
   11.2220    4.2110    1.6580 C   0  0  0  0  0  0  0  0  0  0  0  0
   10.9940    5.5240    2.1250 C   0  0  0  0  0  3  0  0  0  0  0  0
   10.8170    2.4850   -0.1610 C   0  0  0  0  0  0  0  0  0  0  0  0
   11.8200    2.3430   -1.1330 C   0  0  0  0  0  3  0  0  0  0  0  0
   12.0360    1.1140   -1.7610 C   0  0  0  0  0  3  0  0  0  0  0  0
   11.2490    0.0170   -1.4220 C   0  0  0  0  0  0  0  0  0  0  0  0
   11.5120   -1.4970   -2.1990 Cl  0  0  0  0  0  0  0  0  0  0  0  0
   10.2460    0.1370   -0.4620 C   0  0  0  0  0  3  0  0  0  0  0  0
   10.0300    1.3690    0.1610 C   0  0  0  0  0  3  0  0  0  0  0  0
    9.1460    8.0250    2.9230 O   0  0  0  0  0  1  0  0  0  0  0  0
    9.9520    7.8410    1.9570 C   0  0  0  0  0  0  0  0  0  0  0  0
   10.6410    8.7420    1.3810 O   0  0  0  0  0  0  0  0  0  0  0  0
  1  6  2  0  0  0  0
  1  2  1  0  0  0  0
  2  3  2  0  0  0  0
  3  4  1  0  0  0  0
  4  7  1  0  0  0  0
  5  4  2  0  0  0  0
  6  5  1  0  0  0  0
  7 15  1  0  0  0  0
  8  7  2  0  0  0  0
  8  9  1  0  0  0  0
  9 10  2  0  0  0  0
  9 14  1  0  0  0  0
 10 11  1  0  0  0  0
 11 22  1  0  0  0  0
 11 12  2  0  0  0  0
 13 12  1  0  0  0  0
 14 13  2  0  0  0  0
 15 16  1  0  0  0  0
 15 14  1  0  0  0  0
 16 21  1  0  0  0  0
 16 17  1  0  0  0  0
 17 18  1  0  0  0  0
 18 19  1  0  0  0  0
 20 19  1  0  0  0  0
 21 20  1  0  0  0  0
 22 24  1  0  0  0  0
 23 22  2  0  0  0  0
 25  1  1  0  0  0  0
 26 25  1  0  0  0  0
 27 41  1  0  0  0  0
 27 32  1  0  0  0  0
 28 27  2  0  0  0  0
 29 28  1  0  0  0  0
 29 30  2  0  0  0  0
 30 31  1  0  0  0  0
 31 32  2  0  0  0  0
 31 26  1  0  0  0  0
 33 39  1  0  0  0  0
 33 30  1  0  0  0  0
 34 33  2  0  0  0  0
 35 36  2  0  0  0  0
 35 34  1  0  0  0  0
 36 38  1  0  0  0  0
 37 36  1  0  0  0  0
 38 39  2  0  0  0  0
 41 40  1  0  0  0  0
 42 41  2  0  0  0  0
M  END
>  <minimizedAffinity>
-7.09713364

$$$$
