
 OpenBabel09122222393D

 42 47  0  0  0  0  0  0  0  0999 V2000
    7.2570    2.3200   13.6770 C   0  0  0  0  0  0  0  0  0  0  0  0
    8.6380    2.5040   13.6830 C   0  0  0  0  0  3  0  0  0  0  0  0
    9.1900    3.6080   13.0270 C   0  0  0  0  0  3  0  0  0  0  0  0
    8.3600    4.5500   12.4000 C   0  0  0  0  0  0  0  0  0  0  0  0
    6.9760    4.3280   12.3740 C   0  0  0  0  0  3  0  0  0  0  0  0
    6.4230    3.2200   13.0210 C   0  0  0  0  0  3  0  0  0  0  0  0
    8.9070    5.7690   11.7960 C   0  0  0  0  0  0  0  0  0  0  0  0
    9.1370    6.8860   12.4600 N   0  0  0  0  0  0  0  0  0  0  0  0
    9.6630    7.7750   11.5560 C   0  0  0  0  0  0  0  0  0  0  0  0
   10.0690    9.1080   11.7430 C   0  0  0  0  0  3  0  0  0  0  0  0
   10.5930    9.8420   10.6590 C   0  0  0  0  0  0  0  0  0  0  0  0
   10.6920    9.2160    9.4060 C   0  0  0  0  0  3  0  0  0  0  0  0
   10.2930    7.8910    9.1990 C   0  0  0  0  0  3  0  0  0  0  0  0
    9.7830    7.1880   10.2990 C   0  0  0  0  0  0  0  0  0  0  0  0
    9.3270    5.8960   10.4780 N   0  0  0  0  0  0  0  0  0  0  0  0
    9.3430    4.8300    9.4790 C   0  0  0  0  0  3  0  0  0  0  0  0
    8.0550    4.7910    8.6410 C   0  0  0  0  0  2  0  0  0  0  0  0
    8.0730    3.6350    7.6430 C   0  0  0  0  0  2  0  0  0  0  0  0
    9.3240    3.6640    6.7690 C   0  0  0  0  0  2  0  0  0  0  0  0
   10.5980    3.6760    7.6100 C   0  0  0  0  0  2  0  0  0  0  0  0
   10.6070    4.8380    8.6030 C   0  0  0  0  0  2  0  0  0  0  0  0
   11.0470   11.2780   10.8360 C   0  0  0  0  0  0  0  0  0  0  0  0
   12.2780   11.4800   11.0830 O   0  0  0  0  0  1  0  0  0  0  0  0
   10.1580   12.1830   10.7220 O   0  0  0  0  0  0  0  0  0  0  0  0
    6.7060    1.3200   14.4230 O   0  0  0  0  0  0  0  0  0  0  0  0
    7.0370    0.0150   13.9310 C   0  0  0  0  0  2  0  0  0  0  0  0
    3.7540   -1.1020   12.3320 C   0  0  0  0  0  0  0  0  0  0  0  0
    4.1380   -1.3180   11.0050 C   0  0  0  0  0  3  0  0  0  0  0  0
    5.4540   -1.0970   10.5990 C   0  0  0  0  0  3  0  0  0  0  0  0
    6.4380   -0.6540   11.5030 C   0  0  0  0  0  0  0  0  0  0  0  0
    6.0830   -0.4830   12.8610 C   0  0  0  0  0  0  0  0  0  0  0  0
    4.7420   -0.7000   13.2460 C   0  0  0  0  0  3  0  0  0  0  0  0
    7.7750   -0.3540   10.9700 C   0  0  0  0  0  0  0  0  0  0  0  0
    8.0750    0.9270   10.4820 C   0  0  0  0  0  3  0  0  0  0  0  0
    9.3350    1.2090    9.9470 C   0  0  0  0  0  3  0  0  0  0  0  0
   10.3040    0.2100    9.8970 C   0  0  0  0  0  0  0  0  0  0  0  0
   11.8550    0.5560    9.2340 Cl  0  0  0  0  0  0  0  0  0  0  0  0
   10.0240   -1.0690   10.3730 C   0  0  0  0  0  3  0  0  0  0  0  0
    8.7620   -1.3490   10.9030 C   0  0  0  0  0  3  0  0  0  0  0  0
    1.7720   -0.2940   13.3780 O   0  0  0  0  0  1  0  0  0  0  0  0
    2.3080   -1.2680   12.7610 C   0  0  0  0  0  0  0  0  0  0  0  0
    1.7320   -2.3580   12.4490 O   0  0  0  0  0  0  0  0  0  0  0  0
  1  2  1  0  0  0  0
  1 25  1  0  0  0  0
  3  2  2  0  0  0  0
  4  3  1  0  0  0  0
  5  4  2  0  0  0  0
  5  6  1  0  0  0  0
  6  1  2  0  0  0  0
  7  4  1  0  0  0  0
  7  8  2  0  0  0  0
  9 10  1  0  0  0  0
  9  8  1  0  0  0  0
 11 22  1  0  0  0  0
 11 10  2  0  0  0  0
 12 11  1  0  0  0  0
 13 12  2  0  0  0  0
 13 14  1  0  0  0  0
 14 15  1  0  0  0  0
 14  9  2  0  0  0  0
 15  7  1  0  0  0  0
 16 15  1  0  0  0  0
 17 16  1  0  0  0  0
 18 17  1  0  0  0  0
 19 20  1  0  0  0  0
 19 18  1  0  0  0  0
 20 21  1  0  0  0  0
 21 16  1  0  0  0  0
 22 23  1  0  0  0  0
 24 22  2  0  0  0  0
 26 25  1  0  0  0  0
 27 41  1  0  0  0  0
 27 32  1  0  0  0  0
 28 27  2  0  0  0  0
 29 28  1  0  0  0  0
 29 30  2  0  0  0  0
 30 31  1  0  0  0  0
 31 32  2  0  0  0  0
 31 26  1  0  0  0  0
 33 30  1  0  0  0  0
 34 33  2  0  0  0  0
 35 34  1  0  0  0  0
 36 35  2  0  0  0  0
 36 38  1  0  0  0  0
 37 36  1  0  0  0  0
 38 39  2  0  0  0  0
 39 33  1  0  0  0  0
 41 40  1  0  0  0  0
 42 41  2  0  0  0  0
M  END
>  <minimizedAffinity>
-7.03442144

$$$$
