
 OpenBabel09122222393D

 42 47  0  0  0  0  0  0  0  0999 V2000
    7.2030   -2.1370    7.6490 C   0  0  0  0  0  0  0  0  0  0  0  0
    8.2830   -1.9230    8.5010 C   0  0  0  0  0  3  0  0  0  0  0  0
    8.3200   -0.7720    9.2930 C   0  0  0  0  0  3  0  0  0  0  0  0
    7.2580    0.1450    9.2630 C   0  0  0  0  0  0  0  0  0  0  0  0
    6.1980   -0.0700    8.3710 C   0  0  0  0  0  3  0  0  0  0  0  0
    6.1640   -1.2150    7.5720 C   0  0  0  0  0  3  0  0  0  0  0  0
    7.2240    1.3050   10.1590 C   0  0  0  0  0  0  0  0  0  0  0  0
    7.8310    2.4500    9.9120 N   0  0  0  0  0  0  0  0  0  0  0  0
    7.5450    3.2790   10.9690 C   0  0  0  0  0  0  0  0  0  0  0  0
    7.9540    4.6030   11.2050 C   0  0  0  0  0  3  0  0  0  0  0  0
    7.5300    5.2730   12.3710 C   0  0  0  0  0  0  0  0  0  0  0  0
    6.7040    4.5900   13.2770 C   0  0  0  0  0  3  0  0  0  0  0  0
    6.2860    3.2720   13.0610 C   0  0  0  0  0  3  0  0  0  0  0  0
    6.7200    2.6380   11.8890 C   0  0  0  0  0  0  0  0  0  0  0  0
    6.4980    1.3890   11.3400 N   0  0  0  0  0  0  0  0  0  0  0  0
    5.6050    0.3610   11.8700 C   0  0  0  0  0  3  0  0  0  0  0  0
    6.0350   -0.1290   13.2620 C   0  0  0  0  0  2  0  0  0  0  0  0
    5.1200   -1.2410   13.7700 C   0  0  0  0  0  2  0  0  0  0  0  0
    3.6530   -0.8220   13.7390 C   0  0  0  0  0  2  0  0  0  0  0  0
    3.2270   -0.3600   12.3480 C   0  0  0  0  0  2  0  0  0  0  0  0
    4.1210    0.7650   11.8300 C   0  0  0  0  0  2  0  0  0  0  0  0
    7.9500    6.7040   12.6460 C   0  0  0  0  0  0  0  0  0  0  0  0
    9.0460    7.1030   12.1410 O   0  0  0  0  0  0  0  0  0  0  0  0
    7.1690    7.4070   13.3660 O   0  0  0  0  0  1  0  0  0  0  0  0
    7.1000   -3.3190    6.9730 O   0  0  0  0  0  0  0  0  0  0  0  0
    5.9050   -4.0400    7.3000 C   0  0  0  0  0  2  0  0  0  0  0  0
    4.6570   -4.5920    3.7320 C   0  0  0  0  0  0  0  0  0  0  0  0
    3.2750   -4.4450    3.8830 C   0  0  0  0  0  3  0  0  0  0  0  0
    2.7190   -4.1780    5.1360 C   0  0  0  0  0  3  0  0  0  0  0  0
    3.5240   -4.0460    6.2830 C   0  0  0  0  0  0  0  0  0  0  0  0
    4.9270   -4.1360    6.1420 C   0  0  0  0  0  0  0  0  0  0  0  0
    5.4660   -4.4190    4.8680 C   0  0  0  0  0  3  0  0  0  0  0  0
    2.8480   -3.8610    7.5760 C   0  0  0  0  0  0  0  0  0  0  0  0
    2.6110   -2.5710    8.0770 C   0  0  0  0  0  3  0  0  0  0  0  0
    1.9950   -2.3900    9.3180 C   0  0  0  0  0  3  0  0  0  0  0  0
    1.6130   -3.4990   10.0680 C   0  0  0  0  0  0  0  0  0  0  0  0
    0.8590   -3.2760   11.6000 Cl  0  0  0  0  0  0  0  0  0  0  0  0
    1.8430   -4.7870    9.5900 C   0  0  0  0  0  3  0  0  0  0  0  0
    2.4630   -4.9650    8.3510 C   0  0  0  0  0  3  0  0  0  0  0  0
    6.5260   -4.9260    2.2940 O   0  0  0  0  0  1  0  0  0  0  0  0
    5.2590   -4.9570    2.3880 C   0  0  0  0  0  0  0  0  0  0  0  0
    4.4520   -5.2920    1.4630 O   0  0  0  0  0  0  0  0  0  0  0  0
  1  2  1  0  0  0  0
  2  3  2  0  0  0  0
  4  3  1  0  0  0  0
  4  7  1  0  0  0  0
  5  4  2  0  0  0  0
  6  1  2  0  0  0  0
  6  5  1  0  0  0  0
  7 15  1  0  0  0  0
  8  7  2  0  0  0  0
  8  9  1  0  0  0  0
  9 10  2  0  0  0  0
  9 14  1  0  0  0  0
 10 11  1  0  0  0  0
 11 22  1  0  0  0  0
 11 12  2  0  0  0  0
 13 12  1  0  0  0  0
 14 13  2  0  0  0  0
 15 16  1  0  0  0  0
 15 14  1  0  0  0  0
 16 17  1  0  0  0  0
 17 18  1  0  0  0  0
 19 18  1  0  0  0  0
 20 19  1  0  0  0  0
 21 16  1  0  0  0  0
 21 20  1  0  0  0  0
 22 24  1  0  0  0  0
 23 22  2  0  0  0  0
 25 26  1  0  0  0  0
 25  1  1  0  0  0  0
 27 28  2  0  0  0  0
 27 32  1  0  0  0  0
 28 29  1  0  0  0  0
 29 30  2  0  0  0  0
 30 33  1  0  0  0  0
 31 30  1  0  0  0  0
 31 26  1  0  0  0  0
 32 31  2  0  0  0  0
 33 34  2  0  0  0  0
 33 39  1  0  0  0  0
 34 35  1  0  0  0  0
 35 36  2  0  0  0  0
 36 37  1  0  0  0  0
 38 36  1  0  0  0  0
 39 38  2  0  0  0  0
 40 41  1  0  0  0  0
 41 27  1  0  0  0  0
 42 41  2  0  0  0  0
M  END
>  <minimizedAffinity>
-7.3865819

$$$$
