
 OpenBabel09122222393D

 42 47  0  0  0  0  0  0  0  0999 V2000
    4.8630    0.2470   12.4460 C   0  0  0  0  0  0  0  0  0  0  0  0
    6.1220    0.3900   13.0240 C   0  0  0  0  0  3  0  0  0  0  0  0
    6.8600    1.5550   12.7930 C   0  0  0  0  0  3  0  0  0  0  0  0
    6.3220    2.5940   12.0180 C   0  0  0  0  0  0  0  0  0  0  0  0
    5.0690    2.4150   11.4150 C   0  0  0  0  0  3  0  0  0  0  0  0
    4.3350    1.2470   11.6360 C   0  0  0  0  0  3  0  0  0  0  0  0
    7.0310    3.8660   11.8470 C   0  0  0  0  0  0  0  0  0  0  0  0
    7.0880    4.8110   12.7650 N   0  0  0  0  0  0  0  0  0  0  0  0
    7.8540    5.8210   12.2370 C   0  0  0  0  0  0  0  0  0  0  0  0
    8.2140    7.0590   12.7980 C   0  0  0  0  0  3  0  0  0  0  0  0
    9.0240    7.9530   12.0680 C   0  0  0  0  0  0  0  0  0  0  0  0
    9.4500    7.5810   10.7840 C   0  0  0  0  0  3  0  0  0  0  0  0
    9.1020    6.3540   10.2070 C   0  0  0  0  0  3  0  0  0  0  0  0
    8.3020    5.4860   10.9630 C   0  0  0  0  0  0  0  0  0  0  0  0
    7.7950    4.2200   10.7420 N   0  0  0  0  0  0  0  0  0  0  0  0
    8.0650    3.3730    9.5820 C   0  0  0  0  0  3  0  0  0  0  0  0
    7.7110    4.0620    8.2560 C   0  0  0  0  0  2  0  0  0  0  0  0
    7.9510    3.1380    7.0640 C   0  0  0  0  0  2  0  0  0  0  0  0
    9.3720    2.5820    7.0580 C   0  0  0  0  0  2  0  0  0  0  0  0
    9.7070    1.8770    8.3700 C   0  0  0  0  0  2  0  0  0  0  0  0
    9.4900    2.7930    9.5730 C   0  0  0  0  0  2  0  0  0  0  0  0
    9.4340    9.2900   12.6540 C   0  0  0  0  0  0  0  0  0  0  0  0
    9.0790    9.5440   13.8480 O   0  0  0  0  0  1  0  0  0  0  0  0
   10.1090   10.0670   11.9030 O   0  0  0  0  0  0  0  0  0  0  0  0
    4.0880   -0.8270   12.7730 O   0  0  0  0  0  0  0  0  0  0  0  0
    3.0050   -1.0280   11.8560 C   0  0  0  0  0  2  0  0  0  0  0  0
    1.3130   -4.4510   11.9510 C   0  0  0  0  0  0  0  0  0  0  0  0
    2.0630   -5.1700   11.0170 C   0  0  0  0  0  3  0  0  0  0  0  0
    3.1170   -4.5650   10.3310 C   0  0  0  0  0  3  0  0  0  0  0  0
    3.4630   -3.2190   10.5560 C   0  0  0  0  0  0  0  0  0  0  0  0
    2.7530   -2.4900   11.5360 C   0  0  0  0  0  0  0  0  0  0  0  0
    1.6810   -3.1190   12.2080 C   0  0  0  0  0  3  0  0  0  0  0  0
    4.5240   -2.6360    9.7210 C   0  0  0  0  0  0  0  0  0  0  0  0
    5.8530   -2.6130   10.1730 C   0  0  0  0  0  3  0  0  0  0  0  0
    6.8600   -2.0330    9.3970 C   0  0  0  0  0  3  0  0  0  0  0  0
    6.5440   -1.4720    8.1620 C   0  0  0  0  0  0  0  0  0  0  0  0
    7.7850   -0.7550    7.2070 Cl  0  0  0  0  0  0  0  0  0  0  0  0
    5.2310   -1.4830    7.6970 C   0  0  0  0  0  3  0  0  0  0  0  0
    4.2260   -2.0580    8.4780 C   0  0  0  0  0  3  0  0  0  0  0  0
   -0.9060   -5.3170   11.9280 O   0  0  0  0  0  0  0  0  0  0  0  0
    0.1180   -5.0810   12.6430 C   0  0  0  0  0  0  0  0  0  0  0  0
    0.2400   -5.3510   13.8800 O   0  0  0  0  0  1  0  0  0  0  0  0
  1 25  1  0  0  0  0
  1  2  1  0  0  0  0
  3  2  2  0  0  0  0
  4  3  1  0  0  0  0
  5  6  1  0  0  0  0
  5  4  2  0  0  0  0
  6  1  2  0  0  0  0
  7  4  1  0  0  0  0
  7  8  2  0  0  0  0
  9  8  1  0  0  0  0
  9 10  1  0  0  0  0
 11 22  1  0  0  0  0
 11 10  2  0  0  0  0
 12 11  1  0  0  0  0
 13 12  2  0  0  0  0
 13 14  1  0  0  0  0
 14  9  2  0  0  0  0
 15 14  1  0  0  0  0
 15  7  1  0  0  0  0
 16 15  1  0  0  0  0
 17 16  1  0  0  0  0
 18 17  1  0  0  0  0
 19 18  1  0  0  0  0
 19 20  1  0  0  0  0
 20 21  1  0  0  0  0
 21 16  1  0  0  0  0
 22 23  1  0  0  0  0
 24 22  2  0  0  0  0
 26 25  1  0  0  0  0
 27 32  1  0  0  0  0
 27 41  1  0  0  0  0
 28 27  2  0  0  0  0
 29 30  2  0  0  0  0
 29 28  1  0  0  0  0
 30 31  1  0  0  0  0
 31 26  1  0  0  0  0
 31 32  2  0  0  0  0
 33 34  1  0  0  0  0
 33 30  1  0  0  0  0
 35 34  2  0  0  0  0
 36 35  1  0  0  0  0
 37 36  1  0  0  0  0
 38 36  2  0  0  0  0
 38 39  1  0  0  0  0
 39 33  2  0  0  0  0
 40 41  2  0  0  0  0
 41 42  1  0  0  0  0
M  END
>  <minimizedAffinity>
-7.22157812

$$$$
