
 OpenBabel09122222393D

 42 47  0  0  0  0  0  0  0  0999 V2000
    9.9050    1.7260    7.9610 C   0  0  0  0  0  0  0  0  0  0  0  0
   11.1380    2.2180    8.3820 C   0  0  0  0  0  3  0  0  0  0  0  0
   11.2250    3.5160    8.8960 C   0  0  0  0  0  3  0  0  0  0  0  0
   10.0730    4.3060    9.0260 C   0  0  0  0  0  0  0  0  0  0  0  0
    8.8480    3.8070    8.5620 C   0  0  0  0  0  3  0  0  0  0  0  0
    8.7610    2.5140    8.0400 C   0  0  0  0  0  3  0  0  0  0  0  0
   10.1220    5.6290    9.6560 C   0  0  0  0  0  0  0  0  0  0  0  0
   10.5530    6.7210    9.0550 N   0  0  0  0  0  0  0  0  0  0  0  0
   10.4210    7.7430    9.9620 C   0  0  0  0  0  0  0  0  0  0  0  0
   10.7460    9.1050    9.8310 C   0  0  0  0  0  3  0  0  0  0  0  0
   10.5180    9.9890   10.9050 C   0  0  0  0  0  0  0  0  0  0  0  0
    9.9690    9.4800   12.0920 C   0  0  0  0  0  3  0  0  0  0  0  0
    9.6380    8.1280   12.2430 C   0  0  0  0  0  3  0  0  0  0  0  0
    9.8720    7.2780   11.1540 C   0  0  0  0  0  0  0  0  0  0  0  0
    9.6560    5.9310   10.9300 N   0  0  0  0  0  0  0  0  0  0  0  0
    8.9950    5.0010   11.8420 C   0  0  0  0  0  3  0  0  0  0  0  0
    9.8710    4.6440   13.0530 C   0  0  0  0  0  2  0  0  0  0  0  0
    9.1810    3.6290   13.9620 C   0  0  0  0  0  2  0  0  0  0  0  0
    7.7910    4.1000   14.3800 C   0  0  0  0  0  2  0  0  0  0  0  0
    6.9190    4.4280   13.1710 C   0  0  0  0  0  2  0  0  0  0  0  0
    7.5860    5.4560   12.2580 C   0  0  0  0  0  2  0  0  0  0  0  0
   10.8510   11.4640   10.7870 C   0  0  0  0  0  0  0  0  0  0  0  0
    9.8830   12.2760   10.6460 O   0  0  0  0  0  0  0  0  0  0  0  0
   12.0830   11.7840   10.8370 O   0  0  0  0  0  1  0  0  0  0  0  0
    9.7930    0.4200    7.5830 O   0  0  0  0  0  0  0  0  0  0  0  0
   10.8260    0.0160    6.6760 C   0  0  0  0  0  2  0  0  0  0  0  0
    9.3020   -1.4130    3.4780 C   0  0  0  0  0  0  0  0  0  0  0  0
    9.3730   -0.3200    2.6100 C   0  0  0  0  0  3  0  0  0  0  0  0
    9.9000    0.8990    3.0410 C   0  0  0  0  0  3  0  0  0  0  0  0
   10.3780    1.0700    4.3540 C   0  0  0  0  0  0  0  0  0  0  0  0
   10.3670   -0.0390    5.2300 C   0  0  0  0  0  0  0  0  0  0  0  0
    9.8170   -1.2590    4.7770 C   0  0  0  0  0  3  0  0  0  0  0  0
   10.8270    2.4130    4.7500 C   0  0  0  0  0  0  0  0  0  0  0  0
    9.9030    3.4610    4.8810 C   0  0  0  0  0  3  0  0  0  0  0  0
   10.3270    4.7470    5.2290 C   0  0  0  0  0  3  0  0  0  0  0  0
   11.6800    4.9910    5.4500 C   0  0  0  0  0  0  0  0  0  0  0  0
   12.2040    6.5760    5.8750 Cl  0  0  0  0  0  0  0  0  0  0  0  0
   12.6130    3.9640    5.3220 C   0  0  0  0  0  3  0  0  0  0  0  0
   12.1860    2.6820    4.9690 C   0  0  0  0  0  3  0  0  0  0  0  0
    8.0770   -3.4050    3.9330 O   0  0  0  0  0  1  0  0  0  0  0  0
    8.6610   -2.7160    3.0380 C   0  0  0  0  0  0  0  0  0  0  0  0
    8.7320   -3.0090    1.8020 O   0  0  0  0  0  0  0  0  0  0  0  0
  1  6  2  0  0  0  0
  1  2  1  0  0  0  0
  2  3  2  0  0  0  0
  3  4  1  0  0  0  0
  4  7  1  0  0  0  0
  5  4  2  0  0  0  0
  6  5  1  0  0  0  0
  7 15  1  0  0  0  0
  8  7  2  0  0  0  0
  8  9  1  0  0  0  0
  9 14  1  0  0  0  0
 10  9  2  0  0  0  0
 10 11  1  0  0  0  0
 11 12  2  0  0  0  0
 12 13  1  0  0  0  0
 14 13  2  0  0  0  0
 15 14  1  0  0  0  0
 15 16  1  0  0  0  0
 16 21  1  0  0  0  0
 16 17  1  0  0  0  0
 17 18  1  0  0  0  0
 18 19  1  0  0  0  0
 20 19  1  0  0  0  0
 21 20  1  0  0  0  0
 22 24  1  0  0  0  0
 22 11  1  0  0  0  0
 23 22  2  0  0  0  0
 25  1  1  0  0  0  0
 26 25  1  0  0  0  0
 27 32  1  0  0  0  0
 28 29  1  0  0  0  0
 28 27  2  0  0  0  0
 29 30  2  0  0  0  0
 30 33  1  0  0  0  0
 30 31  1  0  0  0  0
 31 26  1  0  0  0  0
 32 31  2  0  0  0  0
 33 34  2  0  0  0  0
 33 39  1  0  0  0  0
 34 35  1  0  0  0  0
 35 36  2  0  0  0  0
 36 37  1  0  0  0  0
 38 36  1  0  0  0  0
 39 38  2  0  0  0  0
 41 27  1  0  0  0  0
 41 40  1  0  0  0  0
 42 41  2  0  0  0  0
M  END
>  <minimizedAffinity>
-7.23286343

$$$$
