
 OpenBabel09132204463D

 39 42  0  0  1  0  0  0  0  0999 V2000
    4.0550   -4.0290    5.3860 N   0  0  0  0  0  0  0  0  0  0  0  0
    3.0130   -4.5910    6.1190 C   0  0  0  0  0  0  0  0  0  0  0  0
    2.4590   -4.0010    7.0510 O   0  0  0  0  0  0  0  0  0  0  0  0
    2.5220   -5.9570    5.7570 C   0  0  0  0  0  0  0  0  0  0  0  0
    3.0570   -6.5750    4.6900 C   0  0  0  0  0  0  0  0  0  0  0  0
    4.1690   -5.9860    3.9230 C   0  0  0  0  0  0  0  0  0  0  0  0
    4.8130   -6.7080    2.8880 C   0  0  0  0  0  3  0  0  0  0  0  0
    5.8370   -6.1550    2.1170 C   0  0  0  0  0  0  0  0  0  0  0  0
    6.2060   -4.8440    2.4030 C   0  0  0  0  0  3  0  0  0  0  0  0
    5.6190   -4.1290    3.4540 C   0  0  0  0  0  3  0  0  0  0  0  0
    4.6160   -4.6950    4.2490 C   0  0  0  0  0  0  0  0  0  0  0  0
    1.4240   -6.5770    6.5930 C   0  0  1  0  0  3  0  0  0  0  0  0
    1.6430   -6.8190    7.8620 N   0  0  0  0  0  0  0  0  0  0  0  0
    0.6100   -7.4690    8.9030 S   0  0  0  0  0  0  0  0  0  0  0  0
    1.0990   -8.7770    9.2910 O   0  0  0  0  0  0  0  0  0  0  0  0
    0.3010   -6.4910    9.9280 O   0  0  0  0  0  0  0  0  0  0  0  0
   -0.8920   -7.7500    8.0310 C   0  0  0  0  0  0  0  0  0  0  0  0
   -1.9930   -8.2880    8.7060 C   0  0  0  0  0  3  0  0  0  0  0  0
   -3.1770   -8.5050    8.0060 C   0  0  0  0  0  3  0  0  0  0  0  0
   -3.2470   -8.1870    6.6510 C   0  0  0  0  0  3  0  0  0  0  0  0
   -2.1360   -7.6500    5.9920 C   0  0  0  0  0  3  0  0  0  0  0  0
   -0.9410   -7.4250    6.6810 C   0  0  0  0  0  0  0  0  0  0  0  0
    0.1640   -6.8830    6.0370 N   0  0  0  0  0  0  0  0  0  0  0  0
    2.5510   -6.5750    8.2290 H   0  0  0  0  0  0  0  0  0  0  0  0
    0.0720   -6.6690    5.0370 H   0  0  0  0  0  0  0  0  0  0  0  0
    2.5290   -7.7840    4.2470 O   0  0  0  0  0  0  0  0  0  0  0  0
    2.6030   -7.8040    3.2720 H   0  0  0  0  0  0  0  0  0  0  0  0
    6.4590   -6.8080    1.0750 N   0  0  0  0  0  0  0  0  0  0  0  0
    6.9500   -7.6720    1.2920 H   0  0  0  0  0  0  0  0  0  0  0  0
    6.3160   -6.5150   -0.3490 C   0  0  0  0  0  2  0  0  0  0  0  0
    5.0800   -7.2080   -0.9320 C   0  0  0  0  0  2  0  0  0  0  0  0
    5.2480   -8.6230   -0.9020 O   0  0  0  0  0  0  0  0  0  0  0  0
    6.1430   -8.7800   -1.2610 H   0  0  0  0  0  0  0  0  0  0  0  0
    4.5080   -2.6970    5.8100 C   0  0  0  0  0  2  0  0  0  0  0  0
    5.5070   -2.6670    6.9880 C   0  0  0  0  0  2  0  0  0  0  0  0
    4.0130   -0.8390    7.9880 C   0  0  0  0  0  1  0  0  0  0  0  0
    5.3420   -1.6000    8.1040 C   0  0  0  0  0  0  0  0  0  0  0  0
    6.4870   -0.5750    7.9390 C   0  0  0  0  0  1  0  0  0  0  0  0
    5.4620   -2.2240    9.5020 C   0  0  0  0  0  1  0  0  0  0  0  0
  1 34  1  0  0  0  0
  1  2  1  0  0  0  0
  2  3  2  0  0  0  0
  4  2  1  0  0  0  0
  5  4  2  0  0  0  0
  6 11  1  0  0  0  0
  6  5  1  0  0  0  0
  7  6  2  0  0  0  0
  8  9  2  0  0  0  0
  8  7  1  0  0  0  0
  9 10  1  0  0  0  0
 10 11  2  0  0  0  0
 11  1  1  0  0  0  0
 12  4  1  1  0  0  0
 12 13  1  0  0  0  0
 13 24  1  0  0  0  0
 13 14  1  0  0  0  0
 14 15  2  0  0  0  0
 14 16  2  0  0  0  0
 17 18  1  0  0  0  0
 17 14  1  0  0  0  0
 19 18  2  0  0  0  0
 20 19  1  0  0  0  0
 21 20  2  0  0  0  0
 21 22  1  0  0  0  0
 22 17  2  0  0  0  0
 23 12  1  0  0  0  0
 23 22  1  0  0  0  0
 25 23  1  0  0  0  0
 26  5  1  0  0  0  0
 27 26  1  0  0  0  0
 28 29  1  0  0  0  0
 28  8  1  0  0  0  0
 30 28  1  0  0  0  0
 31 32  1  0  0  0  0
 31 30  1  0  0  0  0
 33 32  1  0  0  0  0
 34 35  1  0  0  0  0
 35 37  1  0  0  0  0
 36 37  1  0  0  0  0
 37 39  1  0  0  0  0
 38 37  1  0  0  0  0
M  END
>  <minimizedAffinity>
-7.03038979

$$$$
