
 OpenBabel09132204463D

 39 42  0  0  1  0  0  0  0  0999 V2000
    7.3200   -4.8290    1.8530 N   0  0  0  0  0  0  0  0  0  0  0  0
    7.1070   -4.0420    2.9810 C   0  0  0  0  0  0  0  0  0  0  0  0
    7.9210   -3.1990    3.3700 O   0  0  0  0  0  0  0  0  0  0  0  0
    5.8330   -4.1980    3.7490 C   0  0  0  0  0  0  0  0  0  0  0  0
    4.9000   -5.0500    3.2880 C   0  0  0  0  0  0  0  0  0  0  0  0
    5.1310   -5.8940    2.1020 C   0  0  0  0  0  0  0  0  0  0  0  0
    4.1970   -6.8830    1.7080 C   0  0  0  0  0  3  0  0  0  0  0  0
    4.3710   -7.6620    0.5630 C   0  0  0  0  0  0  0  0  0  0  0  0
    5.5140   -7.4250   -0.1940 C   0  0  0  0  0  3  0  0  0  0  0  0
    6.4760   -6.4880    0.2020 C   0  0  0  0  0  3  0  0  0  0  0  0
    6.3180   -5.7310    1.3690 C   0  0  0  0  0  0  0  0  0  0  0  0
    5.6360   -3.3730    5.0020 C   0  0  1  0  0  3  0  0  0  0  0  0
    6.6690   -3.0990    5.7590 N   0  0  0  0  0  0  0  0  0  0  0  0
    6.6600   -2.2460    7.1170 S   0  0  0  0  0  0  0  0  0  0  0  0
    6.9700   -3.1280    8.2250 O   0  0  0  0  0  0  0  0  0  0  0  0
    7.4480   -1.0450    6.9210 O   0  0  0  0  0  0  0  0  0  0  0  0
    5.0050   -1.7060    7.3740 C   0  0  0  0  0  0  0  0  0  0  0  0
    4.7030   -0.9050    8.4810 C   0  0  0  0  0  3  0  0  0  0  0  0
    3.3910   -0.4820    8.6740 C   0  0  0  0  0  3  0  0  0  0  0  0
    2.4020   -0.8620    7.7680 C   0  0  0  0  0  3  0  0  0  0  0  0
    2.7230   -1.6620    6.6660 C   0  0  0  0  0  3  0  0  0  0  0  0
    4.0360   -2.0940    6.4580 C   0  0  0  0  0  0  0  0  0  0  0  0
    4.3630   -2.8800    5.3620 N   0  0  0  0  0  0  0  0  0  0  0  0
    7.5660   -3.4570    5.4630 H   0  0  0  0  0  0  0  0  0  0  0  0
    3.6050   -3.1430    4.7220 H   0  0  0  0  0  0  0  0  0  0  0  0
    3.6530   -5.1180    3.9020 O   0  0  0  0  0  0  0  0  0  0  0  0
    2.9870   -5.2950    3.2090 H   0  0  0  0  0  0  0  0  0  0  0  0
    3.4670   -8.6040    0.1240 N   0  0  0  0  0  0  0  0  0  0  0  0
    3.5590   -8.9290   -0.8350 H   0  0  0  0  0  0  0  0  0  0  0  0
    2.5160   -9.3520    0.9450 C   0  0  0  0  0  2  0  0  0  0  0  0
    3.1730   -9.8350    2.2430 C   0  0  0  0  0  2  0  0  0  0  0  0
    2.3600   -9.4980    3.3630 O   0  0  0  0  0  0  0  0  0  0  0  0
    2.1170   -8.5620    3.2270 H   0  0  0  0  0  0  0  0  0  0  0  0
    8.6020   -4.6450    1.1600 C   0  0  0  0  0  2  0  0  0  0  0  0
    8.6970   -3.4140    0.2320 C   0  0  0  0  0  2  0  0  0  0  0  0
   10.6650   -2.1770   -0.8490 C   0  0  0  0  0  1  0  0  0  0  0  0
    9.8470   -2.3900    0.4330 C   0  0  0  0  0  0  0  0  0  0  0  0
   10.7980   -2.9650    1.5070 C   0  0  0  0  0  1  0  0  0  0  0  0
    9.3180   -1.0400    0.9410 C   0  0  0  0  0  1  0  0  0  0  0  0
  1  2  1  0  0  0  0
  2  3  2  0  0  0  0
  2  4  1  0  0  0  0
  5  4  2  0  0  0  0
  5 26  1  0  0  0  0
  6  5  1  0  0  0  0
  7  6  1  0  0  0  0
  8  7  2  0  0  0  0
  9 10  2  0  0  0  0
  9  8  1  0  0  0  0
 10 11  1  0  0  0  0
 11  1  1  0  0  0  0
 11  6  2  0  0  0  0
 12  4  1  6  0  0  0
 12 23  1  0  0  0  0
 12 13  1  0  0  0  0
 13 14  1  0  0  0  0
 14 17  1  0  0  0  0
 14 15  2  0  0  0  0
 16 14  2  0  0  0  0
 17 18  1  0  0  0  0
 18 19  2  0  0  0  0
 20 19  1  0  0  0  0
 21 20  2  0  0  0  0
 22 21  1  0  0  0  0
 22 17  2  0  0  0  0
 23 22  1  0  0  0  0
 24 13  1  0  0  0  0
 25 23  1  0  0  0  0
 27 26  1  0  0  0  0
 28  8  1  0  0  0  0
 28 30  1  0  0  0  0
 29 28  1  0  0  0  0
 30 31  1  0  0  0  0
 31 32  1  0  0  0  0
 33 32  1  0  0  0  0
 34  1  1  0  0  0  0
 35 37  1  0  0  0  0
 35 34  1  0  0  0  0
 36 37  1  0  0  0  0
 37 39  1  0  0  0  0
 37 38  1  0  0  0  0
M  END
>  <minimizedAffinity>
-7.87550831

$$$$
