
 OpenBabel09132204463D

 39 42  0  0  1  0  0  0  0  0999 V2000
    4.4880   -5.0000    4.1820 N   0  0  0  0  0  0  0  0  0  0  0  0
    5.5840   -4.1540    4.3280 C   0  0  0  0  0  0  0  0  0  0  0  0
    6.2730   -3.7850    3.3730 O   0  0  0  0  0  0  0  0  0  0  0  0
    5.9370   -3.6480    5.6900 C   0  0  0  0  0  0  0  0  0  0  0  0
    5.1440   -3.9720    6.7260 C   0  0  0  0  0  0  0  0  0  0  0  0
    3.9920   -4.8780    6.5750 C   0  0  0  0  0  0  0  0  0  0  0  0
    3.2490   -5.3180    7.6970 C   0  0  0  0  0  3  0  0  0  0  0  0
    2.1260   -6.1390    7.5750 C   0  0  0  0  0  0  0  0  0  0  0  0
    1.7540   -6.5110    6.2870 C   0  0  0  0  0  3  0  0  0  0  0  0
    2.5020   -6.1300    5.1660 C   0  0  0  0  0  3  0  0  0  0  0  0
    3.6470   -5.3360    5.2920 C   0  0  0  0  0  0  0  0  0  0  0  0
    7.1610   -2.7710    5.8430 C   0  0  1  0  0  3  0  0  0  0  0  0
    8.0540   -2.7430    4.8840 N   0  0  0  0  0  0  0  0  0  0  0  0
    9.4070   -1.8830    4.8640 S   0  0  0  0  0  0  0  0  0  0  0  0
   10.5370   -2.7880    4.9330 O   0  0  0  0  0  0  0  0  0  0  0  0
    9.3330   -0.9180    3.7840 O   0  0  0  0  0  0  0  0  0  0  0  0
    9.4440   -0.9450    6.3520 C   0  0  0  0  0  0  0  0  0  0  0  0
   10.5080   -0.0690    6.5910 C   0  0  0  0  0  3  0  0  0  0  0  0
   10.5270    0.6690    7.7720 C   0  0  0  0  0  3  0  0  0  0  0  0
    9.4910    0.5240    8.6930 C   0  0  0  0  0  3  0  0  0  0  0  0
    8.4340   -0.3550    8.4360 C   0  0  0  0  0  3  0  0  0  0  0  0
    8.4010   -1.1020    7.2560 C   0  0  0  0  0  0  0  0  0  0  0  0
    7.3500   -1.9710    6.9900 N   0  0  0  0  0  0  0  0  0  0  0  0
    7.8780   -3.3180    4.0730 H   0  0  0  0  0  0  0  0  0  0  0  0
    6.6110   -2.0520    7.6970 H   0  0  0  0  0  0  0  0  0  0  0  0
    5.3680   -3.4070    7.9790 O   0  0  0  0  0  0  0  0  0  0  0  0
    4.4990   -3.2780    8.4090 H   0  0  0  0  0  0  0  0  0  0  0  0
    1.3530   -6.5550    8.6360 N   0  0  0  0  0  0  0  0  0  0  0  0
    1.5910   -6.1960    9.5580 H   0  0  0  0  0  0  0  0  0  0  0  0
    0.0900   -7.2870    8.5630 C   0  0  0  0  0  2  0  0  0  0  0  0
   -0.6560   -7.2330    9.9000 C   0  0  0  0  0  2  0  0  0  0  0  0
   -2.0230   -7.5890    9.7180 O   0  0  0  0  0  0  0  0  0  0  0  0
   -2.3180   -7.0730    8.9440 H   0  0  0  0  0  0  0  0  0  0  0  0
    4.2110   -5.4820    2.8220 C   0  0  0  0  0  2  0  0  0  0  0  0
    4.7700   -6.8790    2.4740 C   0  0  0  0  0  2  0  0  0  0  0  0
    4.8450   -8.1020    0.2220 C   0  0  0  0  0  1  0  0  0  0  0  0
    5.5390   -7.0860    1.1420 C   0  0  0  0  0  0  0  0  0  0  0  0
    6.9350   -7.6490    1.4940 C   0  0  0  0  0  1  0  0  0  0  0  0
    5.7370   -5.7600    0.3930 C   0  0  0  0  0  1  0  0  0  0  0  0
  1  2  1  0  0  0  0
  1 11  1  0  0  0  0
  2  4  1  0  0  0  0
  3  2  2  0  0  0  0
  4  5  2  0  0  0  0
  5 26  1  0  0  0  0
  6  5  1  0  0  0  0
  6  7  1  0  0  0  0
  8  7  2  0  0  0  0
  8 28  1  0  0  0  0
  9  8  1  0  0  0  0
 10 11  1  0  0  0  0
 10  9  2  0  0  0  0
 11  6  2  0  0  0  0
 12  4  1  6  0  0  0
 12 23  1  0  0  0  0
 13 12  1  0  0  0  0
 14 13  1  0  0  0  0
 14 15  2  0  0  0  0
 14 17  1  0  0  0  0
 16 14  2  0  0  0  0
 17 18  2  0  0  0  0
 17 22  1  0  0  0  0
 18 19  1  0  0  0  0
 19 20  2  0  0  0  0
 21 20  1  0  0  0  0
 22 21  2  0  0  0  0
 23 22  1  0  0  0  0
 23 25  1  0  0  0  0
 24 13  1  0  0  0  0
 26 27  1  0  0  0  0
 28 29  1  0  0  0  0
 30 28  1  0  0  0  0
 30 31  1  0  0  0  0
 32 31  1  0  0  0  0
 33 32  1  0  0  0  0
 34  1  1  0  0  0  0
 35 34  1  0  0  0  0
 36 37  1  0  0  0  0
 37 38  1  0  0  0  0
 37 35  1  0  0  0  0
 39 37  1  0  0  0  0
M  END
>  <minimizedAffinity>
-6.88371754

$$$$
