
 OpenBabel09132204463D

 39 42  0  0  1  0  0  0  0  0999 V2000
    3.5170   -7.0080    5.2420 N   0  0  0  0  0  0  0  0  0  0  0  0
    3.8230   -5.9740    6.1230 C   0  0  0  0  0  0  0  0  0  0  0  0
    3.5350   -6.0140    7.3230 O   0  0  0  0  0  0  0  0  0  0  0  0
    4.5490   -4.7710    5.6110 C   0  0  0  0  0  0  0  0  0  0  0  0
    4.9440   -4.7520    4.3260 C   0  0  0  0  0  0  0  0  0  0  0  0
    4.6090   -5.8400    3.3900 C   0  0  0  0  0  0  0  0  0  0  0  0
    4.9140   -5.7440    2.0100 C   0  0  0  0  0  3  0  0  0  0  0  0
    4.6480   -6.7790    1.1120 C   0  0  0  0  0  0  0  0  0  0  0  0
    4.0670   -7.9320    1.6320 C   0  0  0  0  0  3  0  0  0  0  0  0
    3.7120   -8.0300    2.9820 C   0  0  0  0  0  3  0  0  0  0  0  0
    3.9460   -6.9790    3.8760 C   0  0  0  0  0  0  0  0  0  0  0  0
    4.8300   -3.6320    6.5680 C   0  0  1  0  0  3  0  0  0  0  0  0
    6.0630   -3.2250    6.7360 N   0  0  0  0  0  0  0  0  0  0  0  0
    6.5560   -2.0420    7.7000 S   0  0  0  0  0  0  0  0  0  0  0  0
    7.3410   -2.6130    8.7760 O   0  0  0  0  0  0  0  0  0  0  0  0
    7.1240   -0.9830    6.8890 O   0  0  0  0  0  0  0  0  0  0  0  0
    5.1200   -1.3610    8.4540 C   0  0  0  0  0  0  0  0  0  0  0  0
    5.2470   -0.2790    9.3320 C   0  0  0  0  0  3  0  0  0  0  0  0
    4.1040    0.2530    9.9230 C   0  0  0  0  0  3  0  0  0  0  0  0
    2.8570   -0.2980    9.6340 C   0  0  0  0  0  3  0  0  0  0  0  0
    2.7490   -1.3790    8.7520 C   0  0  0  0  0  3  0  0  0  0  0  0
    3.8870   -1.9230    8.1510 C   0  0  0  0  0  0  0  0  0  0  0  0
    3.7860   -2.9910    7.2690 N   0  0  0  0  0  0  0  0  0  0  0  0
    6.7820   -3.6990    6.2080 H   0  0  0  0  0  0  0  0  0  0  0  0
    2.8500   -3.3710    7.0880 H   0  0  0  0  0  0  0  0  0  0  0  0
    5.7380   -3.7100    3.8560 O   0  0  0  0  0  0  0  0  0  0  0  0
    6.3520   -4.0780    3.1900 H   0  0  0  0  0  0  0  0  0  0  0  0
    4.9660   -6.7410   -0.2280 N   0  0  0  0  0  0  0  0  0  0  0  0
    4.4720   -7.3820   -0.8440 H   0  0  0  0  0  0  0  0  0  0  0  0
    5.7810   -5.7330   -0.9040 C   0  0  0  0  0  2  0  0  0  0  0  0
    7.2670   -5.9170   -0.5750 C   0  0  0  0  0  2  0  0  0  0  0  0
    8.0590   -5.0270   -1.3550 O   0  0  0  0  0  0  0  0  0  0  0  0
    7.7190   -5.1170   -2.2660 H   0  0  0  0  0  0  0  0  0  0  0  0
    2.7800   -8.1490    5.8020 C   0  0  0  0  0  2  0  0  0  0  0  0
    1.4380   -7.8140    6.4880 C   0  0  0  0  0  2  0  0  0  0  0  0
   -1.1250   -7.7490    6.4440 C   0  0  0  0  0  1  0  0  0  0  0  0
    0.1650   -7.6090    5.6220 C   0  0  0  0  0  0  0  0  0  0  0  0
    0.1560   -8.7140    4.5420 C   0  0  0  0  0  1  0  0  0  0  0  0
    0.1800   -6.2480    4.9100 C   0  0  0  0  0  1  0  0  0  0  0  0
  1 34  1  0  0  0  0
  1  2  1  0  0  0  0
  2  3  2  0  0  0  0
  4  2  1  0  0  0  0
  5  4  2  0  0  0  0
  6 11  1  0  0  0  0
  6  5  1  0  0  0  0
  7  6  2  0  0  0  0
  8  9  2  0  0  0  0
  8  7  1  0  0  0  0
  9 10  1  0  0  0  0
 10 11  2  0  0  0  0
 11  1  1  0  0  0  0
 12  4  1  6  0  0  0
 12 13  1  0  0  0  0
 12 23  1  0  0  0  0
 13 14  1  0  0  0  0
 14 17  1  0  0  0  0
 14 15  2  0  0  0  0
 16 14  2  0  0  0  0
 17 18  1  0  0  0  0
 18 19  2  0  0  0  0
 20 19  1  0  0  0  0
 21 20  2  0  0  0  0
 22 17  2  0  0  0  0
 22 21  1  0  0  0  0
 23 22  1  0  0  0  0
 24 13  1  0  0  0  0
 25 23  1  0  0  0  0
 26  5  1  0  0  0  0
 27 26  1  0  0  0  0
 28  8  1  0  0  0  0
 29 28  1  0  0  0  0
 30 31  1  0  0  0  0
 30 28  1  0  0  0  0
 32 31  1  0  0  0  0
 33 32  1  0  0  0  0
 34 35  1  0  0  0  0
 37 36  1  0  0  0  0
 37 35  1  0  0  0  0
 38 37  1  0  0  0  0
 39 37  1  0  0  0  0
M  END
>  <minimizedAffinity>
-6.69291496

$$$$
