
 OpenBabel09132204463D

 39 42  0  0  1  0  0  0  0  0999 V2000
    1.7700   -6.9130    7.2300 N   0  0  0  0  0  0  0  0  0  0  0  0
    2.2760   -7.3050    5.9940 C   0  0  0  0  0  0  0  0  0  0  0  0
    1.8440   -8.2830    5.3760 O   0  0  0  0  0  0  0  0  0  0  0  0
    3.3730   -6.5040    5.3680 C   0  0  0  0  0  0  0  0  0  0  0  0
    3.7940   -5.3880    5.9900 C   0  0  0  0  0  0  0  0  0  0  0  0
    3.2680   -4.9810    7.3040 C   0  0  0  0  0  0  0  0  0  0  0  0
    3.8160   -3.8810    8.0080 C   0  0  0  0  0  3  0  0  0  0  0  0
    3.3060   -3.4470    9.2330 C   0  0  0  0  0  0  0  0  0  0  0  0
    2.2160   -4.1450    9.7450 C   0  0  0  0  0  3  0  0  0  0  0  0
    1.6890   -5.2660    9.0920 C   0  0  0  0  0  3  0  0  0  0  0  0
    2.2230   -5.7210    7.8820 C   0  0  0  0  0  0  0  0  0  0  0  0
    3.9490   -6.9700    4.0490 C   0  0  1  0  0  3  0  0  0  0  0  0
    4.2150   -8.2410    3.8780 N   0  0  0  0  0  0  0  0  0  0  0  0
    4.8260   -8.9210    2.5600 S   0  0  0  0  0  0  0  0  0  0  0  0
    6.1600   -9.4040    2.8590 O   0  0  0  0  0  0  0  0  0  0  0  0
    3.8450   -9.8350    2.0080 O   0  0  0  0  0  0  0  0  0  0  0  0
    5.0260   -7.6430    1.3670 C   0  0  0  0  0  0  0  0  0  0  0  0
    5.5170   -7.9560    0.0950 C   0  0  0  0  0  3  0  0  0  0  0  0
    5.6710   -6.9370   -0.8410 C   0  0  0  0  0  3  0  0  0  0  0  0
    5.3360   -5.6280   -0.4990 C   0  0  0  0  0  3  0  0  0  0  0  0
    4.8450   -5.3350    0.7770 C   0  0  0  0  0  3  0  0  0  0  0  0
    4.6850   -6.3460    1.7280 C   0  0  0  0  0  0  0  0  0  0  0  0
    4.1890   -6.0640    2.9940 N   0  0  0  0  0  0  0  0  0  0  0  0
    4.0180   -8.8620    4.6500 H   0  0  0  0  0  0  0  0  0  0  0  0
    3.9610   -5.0860    3.2080 H   0  0  0  0  0  0  0  0  0  0  0  0
    4.7150   -4.5500    5.3680 O   0  0  0  0  0  0  0  0  0  0  0  0
    4.5000   -3.6300    5.6200 H   0  0  0  0  0  0  0  0  0  0  0  0
    3.7840   -2.3580    9.9280 N   0  0  0  0  0  0  0  0  0  0  0  0
    3.1720   -1.9440   10.6270 H   0  0  0  0  0  0  0  0  0  0  0  0
    5.1570   -1.8560    9.9280 C   0  0  0  0  0  2  0  0  0  0  0  0
    5.3170   -0.6930    8.9440 C   0  0  0  0  0  2  0  0  0  0  0  0
    4.0690   -0.0340    8.7510 O   0  0  0  0  0  0  0  0  0  0  0  0
    3.4240   -0.7520    8.5980 H   0  0  0  0  0  0  0  0  0  0  0  0
    0.7120   -7.7580    7.8010 C   0  0  0  0  0  2  0  0  0  0  0  0
   -0.7250   -7.2020    7.6980 C   0  0  0  0  0  2  0  0  0  0  0  0
   -1.4380   -6.9950    5.2440 C   0  0  0  0  0  1  0  0  0  0  0  0
   -1.6680   -7.7200    6.5790 C   0  0  0  0  0  0  0  0  0  0  0  0
   -3.1200   -7.4320    7.0250 C   0  0  0  0  0  1  0  0  0  0  0  0
   -1.5250   -9.2350    6.3760 C   0  0  0  0  0  1  0  0  0  0  0  0
  1 34  1  0  0  0  0
  1 11  1  0  0  0  0
  2  1  1  0  0  0  0
  3  2  2  0  0  0  0
  4  5  2  0  0  0  0
  4  2  1  0  0  0  0
  5  6  1  0  0  0  0
  6 11  2  0  0  0  0
  6  7  1  0  0  0  0
  7  8  2  0  0  0  0
  8  9  1  0  0  0  0
  8 28  1  0  0  0  0
 10  9  2  0  0  0  0
 11 10  1  0  0  0  0
 12  4  1  6  0  0  0
 13 12  1  0  0  0  0
 13 24  1  0  0  0  0
 14 15  2  0  0  0  0
 14 13  1  0  0  0  0
 16 14  2  0  0  0  0
 17 22  1  0  0  0  0
 17 14  1  0  0  0  0
 18 17  2  0  0  0  0
 19 20  2  0  0  0  0
 19 18  1  0  0  0  0
 20 21  1  0  0  0  0
 21 22  2  0  0  0  0
 22 23  1  0  0  0  0
 23 25  1  0  0  0  0
 23 12  1  0  0  0  0
 26 27  1  0  0  0  0
 26  5  1  0  0  0  0
 28 29  1  0  0  0  0
 30 28  1  0  0  0  0
 31 30  1  0  0  0  0
 32 31  1  0  0  0  0
 33 32  1  0  0  0  0
 35 34  1  0  0  0  0
 36 37  1  0  0  0  0
 37 38  1  0  0  0  0
 37 35  1  0  0  0  0
 39 37  1  0  0  0  0
M  END
>  <minimizedAffinity>
-7.38847065

$$$$
