
 OpenBabel09052209203D

 39 42  0  0  1  0  0  0  0  0999 V2000
   15.2770   32.9600   69.9050 C   0  0  0  0  0  0  0  0  0  0  0  0
   15.9900   32.3890   69.0730 O   0  0  0  0  0  0  0  0  0  0  0  0
   15.5460   32.9760   71.2420 O   0  0  0  0  0  0  0  0  0  0  0  0
   14.9500   34.0330   72.0740 C   0  0  1  0  0  0  0  0  0  0  0  0
   13.4060   34.0300   71.8350 C   0  0  0  0  0  2  0  0  0  0  0  0
   13.2200   34.2510   70.3460 C   0  0  0  0  0  0  0  0  0  0  0  0
   14.0550   33.7010   69.4390 C   0  0  0  0  0  0  0  0  0  0  0  0
   15.2040   33.6840   73.5720 C   0  0  0  0  0  3  0  0  0  0  0  0
   16.6500   33.2860   73.9340 C   0  0  0  0  0  2  0  0  0  0  0  0
   16.5290   32.3520   75.1560 C   0  0  0  0  0  2  0  0  0  0  0  0
   15.0360   31.9360   75.2910 C   0  0  0  0  0  2  0  0  0  0  0  0
   14.2950   32.5490   74.0980 C   0  0  0  0  0  2  0  0  0  0  0  0
   15.6550   35.3540   71.6490 C   0  0  0  0  0  2  0  0  0  0  0  0
   15.1950   36.5850   72.4560 C   0  0  0  0  0  2  0  0  0  0  0  0
   15.6530   37.8650   71.8750 C   0  0  0  0  0  0  0  0  0  0  0  0
   16.9840   38.2780   72.0310 C   0  0  0  0  0  3  0  0  0  0  0  0
   17.4200   39.4850   71.4800 C   0  0  0  0  0  3  0  0  0  0  0  0
   16.5210   40.2810   70.7680 C   0  0  0  0  0  0  0  0  0  0  0  0
   15.1940   39.8770   70.6060 C   0  0  0  0  0  3  0  0  0  0  0  0
   14.7600   38.6670   71.1590 C   0  0  0  0  0  3  0  0  0  0  0  0
   16.9330   41.4910   70.2590 O   0  0  0  0  0  0  0  0  0  0  0  0
   17.8390   41.6550   70.5360 H   0  0  0  0  0  0  0  0  0  0  0  0
   12.0840   34.8200   69.9310 O   0  0  0  0  0  0  0  0  0  0  0  0
   12.1090   34.8740   68.9670 H   0  0  0  0  0  0  0  0  0  0  0  0
   13.6980   33.8560   67.7150 S   0  0  0  0  0  0  0  0  0  0  0  0
   15.0200   34.8210   67.0500 C   0  0  0  0  0  0  0  0  0  0  0  0
   15.6280   34.5730   65.7870 C   0  0  0  0  0  0  0  0  0  0  0  0
   16.6440   35.4380   65.3620 C   0  0  0  0  0  3  0  0  0  0  0  0
   17.0830   36.4860   66.1700 C   0  0  0  0  0  0  0  0  0  0  0  0
   16.4800   36.7080   67.4130 C   0  0  0  0  0  0  0  0  0  0  0  0
   16.9760   37.7560   68.3070 C   0  0  0  0  0  1  0  0  0  0  0  0
   15.4670   35.8710   67.8520 C   0  0  0  0  0  3  0  0  0  0  0  0
   15.2430   33.4290   64.9080 C   0  0  0  0  0  0  0  0  0  0  0  0
   15.2570   32.0990   65.6740 C   0  0  0  0  0  1  0  0  0  0  0  0
   16.2170   33.3260   63.7190 C   0  0  0  0  0  1  0  0  0  0  0  0
   13.8250   33.6300   64.3350 C   0  0  0  0  0  1  0  0  0  0  0  0
   18.0410   37.3000   65.7320 N   0  0  0  0  0  0  0  0  0  0  0  0
   18.4680   37.1480   64.8570 H   0  0  0  0  0  0  0  0  0  0  0  0
   18.2320   38.1360   66.2020 H   0  0  0  0  0  0  0  0  0  0  0  0
  1  3  1  0  0  0  0
  2  1  2  0  0  0  0
  3  4  1  0  0  0  0
  4 13  1  6  0  0  0
  4  8  1  0  0  0  0
  5  4  1  0  0  0  0
  6  5  1  0  0  0  0
  7  1  1  0  0  0  0
  7  6  2  0  0  0  0
  8  9  1  0  0  0  0
  8 12  1  0  0  0  0
  9 10  1  0  0  0  0
 10 11  1  0  0  0  0
 12 11  1  0  0  0  0
 13 14  1  0  0  0  0
 15 16  1  0  0  0  0
 15 14  1  0  0  0  0
 17 16  2  0  0  0  0
 18 17  1  0  0  0  0
 19 18  2  0  0  0  0
 19 20  1  0  0  0  0
 20 15  2  0  0  0  0
 21 22  1  0  0  0  0
 21 18  1  0  0  0  0
 23  6  1  0  0  0  0
 24 23  1  0  0  0  0
 25  7  1  0  0  0  0
 26 25  1  0  0  0  0
 26 32  1  0  0  0  0
 27 26  2  0  0  0  0
 28 27  1  0  0  0  0
 28 29  2  0  0  0  0
 29 30  1  0  0  0  0
 30 32  2  0  0  0  0
 30 31  1  0  0  0  0
 33 34  1  0  0  0  0
 33 27  1  0  0  0  0
 35 33  1  0  0  0  0
 36 33  1  0  0  0  0
 37 29  1  0  0  0  0
 37 39  1  0  0  0  0
 38 37  1  0  0  0  0
M  END
>  <minimizedAffinity>
-9.59277534

$$$$

 OpenBabel09052209203D

 39 42  0  0  1  0  0  0  0  0999 V2000
   13.7230   34.9020   68.7920 C   0  0  0  0  0  0  0  0  0  0  0  0
   13.1900   35.9530   69.1660 O   0  0  0  0  0  0  0  0  0  0  0  0
   13.6930   34.4600   67.5020 O   0  0  0  0  0  0  0  0  0  0  0  0
   14.7120   33.4970   67.0570 C   0  0  1  0  0  0  0  0  0  0  0  0
   14.7020   32.2850   68.0420 C   0  0  0  0  0  2  0  0  0  0  0  0
   14.9760   32.8680   69.4140 C   0  0  0  0  0  0  0  0  0  0  0  0
   14.4670   34.0610   69.7900 C   0  0  0  0  0  0  0  0  0  0  0  0
   14.3110   32.9720   65.6440 C   0  0  0  0  0  3  0  0  0  0  0  0
   15.3740   32.1240   64.9150 C   0  0  0  0  0  2  0  0  0  0  0  0
   15.1060   32.3290   63.4100 C   0  0  0  0  0  2  0  0  0  0  0  0
   14.1370   33.5360   63.2590 C   0  0  0  0  0  2  0  0  0  0  0  0
   13.9070   34.0990   64.6650 C   0  0  0  0  0  2  0  0  0  0  0  0
   16.0550   34.2830   67.0320 C   0  0  0  0  0  2  0  0  0  0  0  0
   15.9140   35.7300   66.5180 C   0  0  0  0  0  2  0  0  0  0  0  0
   17.1820   36.4880   66.5580 C   0  0  0  0  0  0  0  0  0  0  0  0
   17.8210   36.7390   67.7810 C   0  0  0  0  0  3  0  0  0  0  0  0
   19.0210   37.4510   67.8200 C   0  0  0  0  0  3  0  0  0  0  0  0
   19.5860   37.9130   66.6300 C   0  0  0  0  0  0  0  0  0  0  0  0
   18.9580   37.6670   65.4070 C   0  0  0  0  0  3  0  0  0  0  0  0
   17.7560   36.9520   65.3710 C   0  0  0  0  0  3  0  0  0  0  0  0
   20.7470   38.6530   66.6660 O   0  0  0  0  0  0  0  0  0  0  0  0
   20.9920   38.8060   67.5830 H   0  0  0  0  0  0  0  0  0  0  0  0
   15.5470   32.0810   70.3310 O   0  0  0  0  0  0  0  0  0  0  0  0
   15.6360   32.5860   71.1490 H   0  0  0  0  0  0  0  0  0  0  0  0
   14.6820   34.6170   71.4550 S   0  0  0  0  0  0  0  0  0  0  0  0
   15.6670   36.0790   71.3350 C   0  0  0  0  0  0  0  0  0  0  0  0
   17.0890   36.0880   71.4070 C   0  0  0  0  0  0  0  0  0  0  0  0
   17.7500   37.3130   71.2600 C   0  0  0  0  0  3  0  0  0  0  0  0
   17.0380   38.5000   71.0940 C   0  0  0  0  0  0  0  0  0  0  0  0
   15.6400   38.4730   71.0350 C   0  0  0  0  0  0  0  0  0  0  0  0
   14.8730   39.7160   70.9340 C   0  0  0  0  0  1  0  0  0  0  0  0
   14.9640   37.2720   71.1690 C   0  0  0  0  0  3  0  0  0  0  0  0
   17.8990   34.8570   71.6470 C   0  0  0  0  0  0  0  0  0  0  0  0
   18.0340   34.0120   70.3740 C   0  0  0  0  0  1  0  0  0  0  0  0
   17.2420   33.9980   72.7440 C   0  0  0  0  0  1  0  0  0  0  0  0
   19.3200   35.2190   72.1270 C   0  0  0  0  0  1  0  0  0  0  0  0
   17.6960   39.6480   70.9420 N   0  0  0  0  0  0  0  0  0  0  0  0
   18.6800   39.6720   70.9820 H   0  0  0  0  0  0  0  0  0  0  0  0
   17.2240   40.4520   70.6470 H   0  0  0  0  0  0  0  0  0  0  0  0
  1  2  2  0  0  0  0
  1  7  1  0  0  0  0
  3  1  1  0  0  0  0
  4 13  1  6  0  0  0
  4  3  1  0  0  0  0
  4  5  1  0  0  0  0
  5  6  1  0  0  0  0
  6  7  2  0  0  0  0
  6 23  1  0  0  0  0
  7 25  1  0  0  0  0
  8  4  1  0  0  0  0
  9  8  1  0  0  0  0
 10  9  1  0  0  0  0
 11 10  1  0  0  0  0
 11 12  1  0  0  0  0
 12  8  1  0  0  0  0
 14 15  1  0  0  0  0
 14 13  1  0  0  0  0
 15 16  1  0  0  0  0
 16 17  2  0  0  0  0
 18 21  1  0  0  0  0
 18 17  1  0  0  0  0
 19 18  2  0  0  0  0
 20 19  1  0  0  0  0
 20 15  2  0  0  0  0
 21 22  1  0  0  0  0
 23 24  1  0  0  0  0
 26 27  1  0  0  0  0
 26 25  1  0  0  0  0
 27 33  1  0  0  0  0
 28 27  2  0  0  0  0
 29 28  1  0  0  0  0
 30 29  2  0  0  0  0
 30 32  1  0  0  0  0
 31 30  1  0  0  0  0
 32 26  2  0  0  0  0
 33 36  1  0  0  0  0
 33 35  1  0  0  0  0
 34 33  1  0  0  0  0
 37 38  1  0  0  0  0
 37 29  1  0  0  0  0
 39 37  1  0  0  0  0
M  END
>  <minimizedAffinity>
-8.94919205

$$$$

 OpenBabel09052209203D

 39 42  0  0  1  0  0  0  0  0999 V2000
   28.4590   34.4610   68.3460 C   0  0  0  0  0  0  0  0  0  0  0  0
   28.2550   33.6700   69.2740 O   0  0  0  0  0  0  0  0  0  0  0  0
   29.1070   35.6510   68.5000 O   0  0  0  0  0  0  0  0  0  0  0  0
   29.7140   36.2880   67.3210 C   0  0  1  0  0  0  0  0  0  0  0  0
   28.6190   36.4100   66.2130 C   0  0  0  0  0  2  0  0  0  0  0  0
   28.1330   34.9960   65.9580 C   0  0  0  0  0  0  0  0  0  0  0  0
   27.9970   34.1030   66.9620 C   0  0  0  0  0  0  0  0  0  0  0  0
   30.1630   37.7280   67.7140 C   0  0  0  0  0  3  0  0  0  0  0  0
   31.0330   37.8400   68.9830 C   0  0  0  0  0  2  0  0  0  0  0  0
   30.7550   39.2460   69.5530 C   0  0  0  0  0  2  0  0  0  0  0  0
   29.4970   39.8110   68.8340 C   0  0  0  0  0  2  0  0  0  0  0  0
   28.9800   38.7040   67.9100 C   0  0  0  0  0  2  0  0  0  0  0  0
   30.9180   35.3840   66.9250 C   0  0  0  0  0  2  0  0  0  0  0  0
   31.6570   35.8610   65.6600 C   0  0  0  0  0  2  0  0  0  0  0  0
   31.9880   34.7600   64.7290 C   0  0  0  0  0  0  0  0  0  0  0  0
   33.3100   34.3120   64.6020 C   0  0  0  0  0  3  0  0  0  0  0  0
   33.6240   33.2690   63.7270 C   0  0  0  0  0  3  0  0  0  0  0  0
   32.6090   32.6720   62.9780 C   0  0  0  0  0  0  0  0  0  0  0  0
   31.2880   33.1100   63.0990 C   0  0  0  0  0  3  0  0  0  0  0  0
   30.9780   34.1550   63.9770 C   0  0  0  0  0  3  0  0  0  0  0  0
   32.9170   31.6730   62.0820 O   0  0  0  0  0  0  0  0  0  0  0  0
   33.8720   31.5580   62.0580 H   0  0  0  0  0  0  0  0  0  0  0  0
   27.6290   34.7110   64.7540 O   0  0  0  0  0  0  0  0  0  0  0  0
   27.3490   33.7870   64.7560 H   0  0  0  0  0  0  0  0  0  0  0  0
   27.2720   32.5240   66.6340 S   0  0  0  0  0  0  0  0  0  0  0  0
   28.6070   31.5040   66.0850 C   0  0  0  0  0  0  0  0  0  0  0  0
   28.4510   30.3930   65.2090 C   0  0  0  0  0  0  0  0  0  0  0  0
   29.5980   29.6890   64.8220 C   0  0  0  0  0  3  0  0  0  0  0  0
   30.8560   30.0360   65.3150 C   0  0  0  0  0  0  0  0  0  0  0  0
   30.9890   31.1260   66.1830 C   0  0  0  0  0  0  0  0  0  0  0  0
   32.2890   31.4590   66.7680 C   0  0  0  0  0  1  0  0  0  0  0  0
   29.8690   31.8420   66.5740 C   0  0  0  0  0  3  0  0  0  0  0  0
   27.1220   29.9370   64.7010 C   0  0  0  0  0  0  0  0  0  0  0  0
   26.3350   31.0910   64.0660 C   0  0  0  0  0  1  0  0  0  0  0  0
   26.2900   29.3470   65.8550 C   0  0  0  0  0  1  0  0  0  0  0  0
   27.2900   28.8350   63.6340 C   0  0  0  0  0  1  0  0  0  0  0  0
   31.9290   29.3570   64.9170 N   0  0  0  0  0  0  0  0  0  0  0  0
   31.8410   28.5900   64.3050 H   0  0  0  0  0  0  0  0  0  0  0  0
   32.8270   29.6970   65.1080 H   0  0  0  0  0  0  0  0  0  0  0  0
  1  3  1  0  0  0  0
  1  2  2  0  0  0  0
  4 13  1  6  0  0  0
  4  8  1  0  0  0  0
  4  3  1  0  0  0  0
  5  4  1  0  0  0  0
  6  5  1  0  0  0  0
  6  7  2  0  0  0  0
  7  1  1  0  0  0  0
  8 12  1  0  0  0  0
  8  9  1  0  0  0  0
  9 10  1  0  0  0  0
 11 10  1  0  0  0  0
 12 11  1  0  0  0  0
 14 13  1  0  0  0  0
 15 14  1  0  0  0  0
 16 15  1  0  0  0  0
 17 16  2  0  0  0  0
 18 19  2  0  0  0  0
 18 17  1  0  0  0  0
 19 20  1  0  0  0  0
 20 15  2  0  0  0  0
 21 18  1  0  0  0  0
 22 21  1  0  0  0  0
 23 24  1  0  0  0  0
 23  6  1  0  0  0  0
 25  7  1  0  0  0  0
 26 32  1  0  0  0  0
 26 25  1  0  0  0  0
 27 26  2  0  0  0  0
 28 27  1  0  0  0  0
 28 29  2  0  0  0  0
 29 30  1  0  0  0  0
 30 32  2  0  0  0  0
 30 31  1  0  0  0  0
 33 27  1  0  0  0  0
 33 35  1  0  0  0  0
 34 33  1  0  0  0  0
 36 33  1  0  0  0  0
 37 39  1  0  0  0  0
 37 29  1  0  0  0  0
 38 37  1  0  0  0  0
M  END
>  <minimizedAffinity>
-8.94837761

$$$$

 OpenBabel09052209203D

 39 42  0  0  1  0  0  0  0  0999 V2000
   14.3180   32.5660   70.7980 C   0  0  0  0  0  0  0  0  0  0  0  0
   15.2200   31.7220   70.7580 O   0  0  0  0  0  0  0  0  0  0  0  0
   13.5140   32.7560   71.8840 O   0  0  0  0  0  0  0  0  0  0  0  0
   12.8150   34.0420   72.0340 C   0  0  1  0  0  0  0  0  0  0  0  0
   12.0200   34.3230   70.7190 C   0  0  0  0  0  2  0  0  0  0  0  0
   13.0500   34.3170   69.6070 C   0  0  0  0  0  0  0  0  0  0  0  0
   14.0900   33.4550   69.6090 C   0  0  0  0  0  0  0  0  0  0  0  0
   11.7870   33.9120   73.1990 C   0  0  0  0  0  3  0  0  0  0  0  0
   10.3740   34.4620   72.9140 C   0  0  0  0  0  2  0  0  0  0  0  0
    9.8080   34.8820   74.2860 C   0  0  0  0  0  2  0  0  0  0  0  0
   10.9870   34.9030   75.3010 C   0  0  0  0  0  2  0  0  0  0  0  0
   12.2590   34.5850   74.5090 C   0  0  0  0  0  2  0  0  0  0  0  0
   13.9230   35.0920   72.3420 C   0  0  0  0  0  2  0  0  0  0  0  0
   13.4860   36.5450   72.0730 C   0  0  0  0  0  2  0  0  0  0  0  0
   14.5370   37.3580   71.4250 C   0  0  0  0  0  0  0  0  0  0  0  0
   14.3990   37.7620   70.0890 C   0  0  0  0  0  3  0  0  0  0  0  0
   15.3890   38.5340   69.4770 C   0  0  0  0  0  3  0  0  0  0  0  0
   16.5210   38.9050   70.2050 C   0  0  0  0  0  0  0  0  0  0  0  0
   16.6670   38.5090   71.5360 C   0  0  0  0  0  3  0  0  0  0  0  0
   15.6730   37.7360   72.1470 C   0  0  0  0  0  3  0  0  0  0  0  0
   17.5200   39.6290   69.5940 O   0  0  0  0  0  0  0  0  0  0  0  0
   17.3050   39.7370   68.6640 H   0  0  0  0  0  0  0  0  0  0  0  0
   12.7930   35.0310   68.5070 O   0  0  0  0  0  0  0  0  0  0  0  0
   13.5270   34.9110   67.8910 H   0  0  0  0  0  0  0  0  0  0  0  0
   15.1660   33.3810   68.2080 S   0  0  0  0  0  0  0  0  0  0  0  0
   16.4790   34.5080   68.5700 C   0  0  0  0  0  0  0  0  0  0  0  0
   17.0010   35.4460   67.6360 C   0  0  0  0  0  0  0  0  0  0  0  0
   18.0190   36.3080   68.0630 C   0  0  0  0  0  3  0  0  0  0  0  0
   18.5400   36.2220   69.3540 C   0  0  0  0  0  0  0  0  0  0  0  0
   18.0200   35.2870   70.2560 C   0  0  0  0  0  0  0  0  0  0  0  0
   18.6040   35.1320   71.5900 C   0  0  0  0  0  1  0  0  0  0  0  0
   17.0080   34.4290   69.8580 C   0  0  0  0  0  3  0  0  0  0  0  0
   16.5260   35.5390   66.2240 C   0  0  0  0  0  0  0  0  0  0  0  0
   16.6410   34.1920   65.4990 C   0  0  0  0  0  1  0  0  0  0  0  0
   17.3540   36.5870   65.4560 C   0  0  0  0  0  1  0  0  0  0  0  0
   15.0480   35.9800   66.1690 C   0  0  0  0  0  1  0  0  0  0  0  0
   19.4970   37.0650   69.7350 N   0  0  0  0  0  0  0  0  0  0  0  0
   19.8660   37.7260   69.1040 H   0  0  0  0  0  0  0  0  0  0  0  0
   19.7430   37.1380   70.6800 H   0  0  0  0  0  0  0  0  0  0  0  0
  1  3  1  0  0  0  0
  2  1  2  0  0  0  0
  3  4  1  0  0  0  0
  4 13  1  1  0  0  0
  4  8  1  0  0  0  0
  5  4  1  0  0  0  0
  6  7  2  0  0  0  0
  6  5  1  0  0  0  0
  7  1  1  0  0  0  0
  8 12  1  0  0  0  0
  9  8  1  0  0  0  0
  9 10  1  0  0  0  0
 10 11  1  0  0  0  0
 12 11  1  0  0  0  0
 14 13  1  0  0  0  0
 15 14  1  0  0  0  0
 15 20  1  0  0  0  0
 16 15  2  0  0  0  0
 17 16  1  0  0  0  0
 17 18  2  0  0  0  0
 18 19  1  0  0  0  0
 19 20  2  0  0  0  0
 21 18  1  0  0  0  0
 22 21  1  0  0  0  0
 23  6  1  0  0  0  0
 24 23  1  0  0  0  0
 25 26  1  0  0  0  0
 25  7  1  0  0  0  0
 26 32  1  0  0  0  0
 27 28  1  0  0  0  0
 27 26  2  0  0  0  0
 28 29  2  0  0  0  0
 29 37  1  0  0  0  0
 29 30  1  0  0  0  0
 30 31  1  0  0  0  0
 32 30  2  0  0  0  0
 33 27  1  0  0  0  0
 34 33  1  0  0  0  0
 35 33  1  0  0  0  0
 36 33  1  0  0  0  0
 37 39  1  0  0  0  0
 38 37  1  0  0  0  0
M  END
>  <minimizedAffinity>
-8.90211964

$$$$

 OpenBabel09052209203D

 39 42  0  0  1  0  0  0  0  0999 V2000
   14.7840   33.1610   71.2610 C   0  0  0  0  0  0  0  0  0  0  0  0
   15.9000   32.7010   71.5260 O   0  0  0  0  0  0  0  0  0  0  0  0
   13.9750   33.7510   72.1870 O   0  0  0  0  0  0  0  0  0  0  0  0
   12.9190   34.6660   71.7270 C   0  0  1  0  0  0  0  0  0  0  0  0
   12.0590   33.9220   70.6560 C   0  0  0  0  0  2  0  0  0  0  0  0
   13.0280   33.5140   69.5630 C   0  0  0  0  0  0  0  0  0  0  0  0
   14.2810   33.0970   69.8470 C   0  0  0  0  0  0  0  0  0  0  0  0
   11.9940   35.0010   72.9370 C   0  0  0  0  0  3  0  0  0  0  0  0
   12.4840   34.5090   74.3150 C   0  0  0  0  0  2  0  0  0  0  0  0
   11.2090   34.2950   75.1560 C   0  0  0  0  0  2  0  0  0  0  0  0
    9.9900   34.3250   74.1890 C   0  0  0  0  0  2  0  0  0  0  0  0
   10.5530   34.4650   72.7710 C   0  0  0  0  0  2  0  0  0  0  0  0
   13.6570   35.9250   71.1850 C   0  0  0  0  0  2  0  0  0  0  0  0
   14.6260   36.5570   72.2040 C   0  0  0  0  0  2  0  0  0  0  0  0
   15.2690   37.7920   71.7060 C   0  0  0  0  0  0  0  0  0  0  0  0
   14.6000   38.6230   70.7960 C   0  0  0  0  0  3  0  0  0  0  0  0
   15.2040   39.7920   70.3280 C   0  0  0  0  0  3  0  0  0  0  0  0
   16.4820   40.1320   70.7750 C   0  0  0  0  0  0  0  0  0  0  0  0
   17.1550   39.3120   71.6830 C   0  0  0  0  0  3  0  0  0  0  0  0
   16.5470   38.1420   72.1500 C   0  0  0  0  0  3  0  0  0  0  0  0
   17.1000   41.2610   70.2850 O   0  0  0  0  0  0  0  0  0  0  0  0
   16.5420   41.6550   69.6090 H   0  0  0  0  0  0  0  0  0  0  0  0
   12.5510   33.3600   68.3240 O   0  0  0  0  0  0  0  0  0  0  0  0
   13.2790   33.0830   67.7530 H   0  0  0  0  0  0  0  0  0  0  0  0
   15.3110   32.4780   68.5500 S   0  0  0  0  0  0  0  0  0  0  0  0
   15.8740   33.9100   67.6800 C   0  0  0  0  0  0  0  0  0  0  0  0
   15.8230   34.0500   66.2640 C   0  0  0  0  0  0  0  0  0  0  0  0
   16.2690   35.2530   65.7030 C   0  0  0  0  0  3  0  0  0  0  0  0
   16.7910   36.2700   66.5010 C   0  0  0  0  0  0  0  0  0  0  0  0
   16.8420   36.1100   67.8910 C   0  0  0  0  0  0  0  0  0  0  0  0
   17.4530   37.1350   68.7380 C   0  0  0  0  0  1  0  0  0  0  0  0
   16.3990   34.9320   68.4700 C   0  0  0  0  0  3  0  0  0  0  0  0
   15.3340   32.9700   65.3560 C   0  0  0  0  0  0  0  0  0  0  0  0
   13.8010   32.9100   65.3250 C   0  0  0  0  0  1  0  0  0  0  0  0
   15.8740   31.6040   65.8210 C   0  0  0  0  0  1  0  0  0  0  0  0
   15.8270   33.2010   63.9130 C   0  0  0  0  0  1  0  0  0  0  0  0
   17.1930   37.4080   65.9400 N   0  0  0  0  0  0  0  0  0  0  0  0
   17.1580   37.5260   64.9620 H   0  0  0  0  0  0  0  0  0  0  0  0
   17.3900   38.1900   66.4940 H   0  0  0  0  0  0  0  0  0  0  0  0
  1  2  2  0  0  0  0
  1  3  1  0  0  0  0
  4 13  1  6  0  0  0
  4  3  1  0  0  0  0
  4  8  1  0  0  0  0
  5  4  1  0  0  0  0
  6  7  2  0  0  0  0
  6  5  1  0  0  0  0
  7  1  1  0  0  0  0
  8  9  1  0  0  0  0
  9 10  1  0  0  0  0
 11 10  1  0  0  0  0
 12  8  1  0  0  0  0
 12 11  1  0  0  0  0
 13 14  1  0  0  0  0
 15 20  1  0  0  0  0
 15 14  1  0  0  0  0
 16 15  2  0  0  0  0
 17 18  2  0  0  0  0
 17 16  1  0  0  0  0
 18 19  1  0  0  0  0
 19 20  2  0  0  0  0
 21 18  1  0  0  0  0
 22 21  1  0  0  0  0
 23  6  1  0  0  0  0
 24 23  1  0  0  0  0
 25  7  1  0  0  0  0
 26 32  1  0  0  0  0
 26 25  1  0  0  0  0
 27 26  2  0  0  0  0
 28 27  1  0  0  0  0
 28 29  2  0  0  0  0
 29 30  1  0  0  0  0
 30 32  2  0  0  0  0
 30 31  1  0  0  0  0
 33 35  1  0  0  0  0
 33 27  1  0  0  0  0
 34 33  1  0  0  0  0
 36 33  1  0  0  0  0
 37 39  1  0  0  0  0
 37 29  1  0  0  0  0
 38 37  1  0  0  0  0
M  END
>  <minimizedAffinity>
-8.8811636

$$$$

 OpenBabel09052209203D

 39 42  0  0  1  0  0  0  0  0999 V2000
   17.0000   35.1750   68.8880 C   0  0  0  0  0  0  0  0  0  0  0  0
   16.5290   34.7620   67.8220 O   0  0  0  0  0  0  0  0  0  0  0  0
   16.5470   36.2910   69.5280 O   0  0  0  0  0  0  0  0  0  0  0  0
   16.8150   36.4420   70.9670 C   0  0  1  0  0  0  0  0  0  0  0  0
   18.3510   36.2730   71.1990 C   0  0  0  0  0  2  0  0  0  0  0  0
   18.7000   34.9010   70.6570 C   0  0  0  0  0  0  0  0  0  0  0  0
   18.1170   34.4110   69.5410 C   0  0  0  0  0  0  0  0  0  0  0  0
   16.4210   37.8890   71.3930 C   0  0  0  0  0  3  0  0  0  0  0  0
   14.9750   38.3170   71.0670 C   0  0  0  0  0  2  0  0  0  0  0  0
   15.0250   39.8490   70.8960 C   0  0  0  0  0  2  0  0  0  0  0  0
   16.5180   40.2670   70.7800 C   0  0  0  0  0  2  0  0  0  0  0  0
   17.3430   38.9750   70.7900 C   0  0  0  0  0  2  0  0  0  0  0  0
   15.9440   35.3630   71.6750 C   0  0  0  0  0  2  0  0  0  0  0  0
   16.1030   35.3520   73.2080 C   0  0  0  0  0  2  0  0  0  0  0  0
   16.2100   33.9900   73.7720 C   0  0  0  0  0  0  0  0  0  0  0  0
   17.4130   33.2760   73.6780 C   0  0  0  0  0  3  0  0  0  0  0  0
   17.5170   31.9900   74.2140 C   0  0  0  0  0  3  0  0  0  0  0  0
   16.4140   31.4180   74.8490 C   0  0  0  0  0  0  0  0  0  0  0  0
   15.2120   32.1230   74.9500 C   0  0  0  0  0  3  0  0  0  0  0  0
   15.1100   33.4100   74.4120 C   0  0  0  0  0  3  0  0  0  0  0  0
   16.4970   30.1360   75.3420 O   0  0  0  0  0  0  0  0  0  0  0  0
   17.3540   29.7660   75.1100 H   0  0  0  0  0  0  0  0  0  0  0  0
   19.7580   34.2690   71.1750 O   0  0  0  0  0  0  0  0  0  0  0  0
   19.8590   33.4250   70.7160 H   0  0  0  0  0  0  0  0  0  0  0  0
   18.6780   32.8780   68.8630 S   0  0  0  0  0  0  0  0  0  0  0  0
   17.9540   31.6260   69.8790 C   0  0  0  0  0  0  0  0  0  0  0  0
   18.6330   30.4430   70.2870 C   0  0  0  0  0  0  0  0  0  0  0  0
   17.9550   29.5480   71.1240 C   0  0  0  0  0  3  0  0  0  0  0  0
   16.6360   29.7830   71.5120 C   0  0  0  0  0  0  0  0  0  0  0  0
   15.9830   30.9470   71.0930 C   0  0  0  0  0  0  0  0  0  0  0  0
   14.5760   31.1750   71.4300 C   0  0  0  0  0  1  0  0  0  0  0  0
   16.6350   31.8520   70.2710 C   0  0  0  0  0  3  0  0  0  0  0  0
   20.0210   30.1080   69.8500 C   0  0  0  0  0  0  0  0  0  0  0  0
   21.0320   31.1570   70.3310 C   0  0  0  0  0  1  0  0  0  0  0  0
   20.0860   30.0270   68.3130 C   0  0  0  0  0  1  0  0  0  0  0  0
   20.4580   28.7380   70.4090 C   0  0  0  0  0  1  0  0  0  0  0  0
   16.0240   28.9210   72.3200 N   0  0  0  0  0  0  0  0  0  0  0  0
   16.4800   28.1000   72.6190 H   0  0  0  0  0  0  0  0  0  0  0  0
   15.1740   29.1580   72.7430 H   0  0  0  0  0  0  0  0  0  0  0  0
  1  3  1  0  0  0  0
  1  7  1  0  0  0  0
  2  1  2  0  0  0  0
  3  4  1  0  0  0  0
  4  5  1  0  0  0  0
  4  8  1  0  0  0  0
  4 13  1  1  0  0  0
  6 23  1  0  0  0  0
  6  5  1  0  0  0  0
  7  6  2  0  0  0  0
  9  8  1  0  0  0  0
 10  9  1  0  0  0  0
 11 12  1  0  0  0  0
 11 10  1  0  0  0  0
 12  8  1  0  0  0  0
 13 14  1  0  0  0  0
 14 15  1  0  0  0  0
 15 20  1  0  0  0  0
 16 15  2  0  0  0  0
 16 17  1  0  0  0  0
 17 18  2  0  0  0  0
 18 19  1  0  0  0  0
 18 21  1  0  0  0  0
 20 19  2  0  0  0  0
 22 21  1  0  0  0  0
 24 23  1  0  0  0  0
 25  7  1  0  0  0  0
 25 26  1  0  0  0  0
 26 32  2  0  0  0  0
 26 27  1  0  0  0  0
 27 28  2  0  0  0  0
 28 29  1  0  0  0  0
 29 37  1  0  0  0  0
 30 31  1  0  0  0  0
 30 29  2  0  0  0  0
 32 30  1  0  0  0  0
 33 27  1  0  0  0  0
 33 34  1  0  0  0  0
 33 36  1  0  0  0  0
 35 33  1  0  0  0  0
 37 38  1  0  0  0  0
 37 39  1  0  0  0  0
M  END
>  <minimizedAffinity>
-8.60691357

$$$$

 OpenBabel09052209203D

 39 42  0  0  1  0  0  0  0  0999 V2000
   27.0280   33.9720   65.9810 C   0  0  0  0  0  0  0  0  0  0  0  0
   27.3330   34.9490   65.2880 O   0  0  0  0  0  0  0  0  0  0  0  0
   26.0350   33.0970   65.6520 O   0  0  0  0  0  0  0  0  0  0  0  0
   26.0500   31.7500   66.2450 C   0  0  1  0  0  0  0  0  0  0  0  0
   26.1440   31.9000   67.7980 C   0  0  0  0  0  2  0  0  0  0  0  0
   27.4100   32.6930   68.0580 C   0  0  0  0  0  0  0  0  0  0  0  0
   27.7920   33.7030   67.2470 C   0  0  0  0  0  0  0  0  0  0  0  0
   24.6990   31.0480   65.9120 C   0  0  0  0  0  3  0  0  0  0  0  0
   23.4470   31.6400   66.5920 C   0  0  0  0  0  2  0  0  0  0  0  0
   22.4510   30.4680   66.7190 C   0  0  0  0  0  2  0  0  0  0  0  0
   23.2290   29.1510   66.4380 C   0  0  0  0  0  2  0  0  0  0  0  0
   24.6980   29.5370   66.2370 C   0  0  0  0  0  2  0  0  0  0  0  0
   27.2660   31.0190   65.6050 C   0  0  0  0  0  2  0  0  0  0  0  0
   27.3280   31.1540   64.0700 C   0  0  0  0  0  2  0  0  0  0  0  0
   28.7070   31.2760   63.5520 C   0  0  0  0  0  0  0  0  0  0  0  0
   29.2640   32.5400   63.3080 C   0  0  0  0  0  3  0  0  0  0  0  0
   30.5680   32.6570   62.8220 C   0  0  0  0  0  3  0  0  0  0  0  0
   31.3190   31.5040   62.5820 C   0  0  0  0  0  0  0  0  0  0  0  0
   30.7730   30.2420   62.8230 C   0  0  0  0  0  3  0  0  0  0  0  0
   29.4660   30.1270   63.3100 C   0  0  0  0  0  3  0  0  0  0  0  0
   32.5890   31.6120   62.0630 O   0  0  0  0  0  0  0  0  0  0  0  0
   32.7730   32.5360   61.8720 H   0  0  0  0  0  0  0  0  0  0  0  0
   28.0300   32.5240   69.2300 O   0  0  0  0  0  0  0  0  0  0  0  0
   28.8000   33.1060   69.2510 H   0  0  0  0  0  0  0  0  0  0  0  0
   29.1850   34.6990   67.6880 S   0  0  0  0  0  0  0  0  0  0  0  0
   30.5640   33.9620   66.8620 C   0  0  0  0  0  0  0  0  0  0  0  0
   31.5680   34.7020   66.1770 C   0  0  0  0  0  0  0  0  0  0  0  0
   32.6280   33.9960   65.5950 C   0  0  0  0  0  3  0  0  0  0  0  0
   32.6770   32.6030   65.6430 C   0  0  0  0  0  0  0  0  0  0  0  0
   31.6750   31.8920   66.3120 C   0  0  0  0  0  0  0  0  0  0  0  0
   31.6710   30.4280   66.3100 C   0  0  0  0  0  1  0  0  0  0  0  0
   30.6200   32.5690   66.9030 C   0  0  0  0  0  3  0  0  0  0  0  0
   31.5330   36.1880   66.0400 C   0  0  0  0  0  0  0  0  0  0  0  0
   30.1810   36.6740   65.5010 C   0  0  0  0  0  1  0  0  0  0  0  0
   32.6450   36.6570   65.0820 C   0  0  0  0  0  1  0  0  0  0  0  0
   31.7720   36.8720   67.4020 C   0  0  0  0  0  1  0  0  0  0  0  0
   33.7060   31.9610   65.0930 N   0  0  0  0  0  0  0  0  0  0  0  0
   34.4140   32.4570   64.6210 H   0  0  0  0  0  0  0  0  0  0  0  0
   33.8470   31.0090   65.2730 H   0  0  0  0  0  0  0  0  0  0  0  0
  1  7  1  0  0  0  0
  2  1  2  0  0  0  0
  3  1  1  0  0  0  0
  3  4  1  0  0  0  0
  4 13  1  6  0  0  0
  4  5  1  0  0  0  0
  5  6  1  0  0  0  0
  6 23  1  0  0  0  0
  7 25  1  0  0  0  0
  7  6  2  0  0  0  0
  8 12  1  0  0  0  0
  8  4  1  0  0  0  0
  8  9  1  0  0  0  0
  9 10  1  0  0  0  0
 11 10  1  0  0  0  0
 12 11  1  0  0  0  0
 14 13  1  0  0  0  0
 15 14  1  0  0  0  0
 16 15  2  0  0  0  0
 17 16  1  0  0  0  0
 18 17  2  0  0  0  0
 18 19  1  0  0  0  0
 19 20  2  0  0  0  0
 20 15  1  0  0  0  0
 21 18  1  0  0  0  0
 22 21  1  0  0  0  0
 23 24  1  0  0  0  0
 26 32  1  0  0  0  0
 26 25  1  0  0  0  0
 27 26  2  0  0  0  0
 28 29  2  0  0  0  0
 28 27  1  0  0  0  0
 29 30  1  0  0  0  0
 30 32  2  0  0  0  0
 31 30  1  0  0  0  0
 33 27  1  0  0  0  0
 33 36  1  0  0  0  0
 34 33  1  0  0  0  0
 35 33  1  0  0  0  0
 37 39  1  0  0  0  0
 37 29  1  0  0  0  0
 38 37  1  0  0  0  0
M  END
>  <minimizedAffinity>
-8.54469013

$$$$

 OpenBabel09052209203D

 39 42  0  0  1  0  0  0  0  0999 V2000
   17.1550   34.6460   66.6440 C   0  0  0  0  0  0  0  0  0  0  0  0
   18.3760   34.5050   66.7700 O   0  0  0  0  0  0  0  0  0  0  0  0
   16.3720   33.8040   65.9110 O   0  0  0  0  0  0  0  0  0  0  0  0
   14.9280   33.7530   66.1890 C   0  0  1  0  0  0  0  0  0  0  0  0
   14.3650   35.2090   66.1190 C   0  0  0  0  0  2  0  0  0  0  0  0
   15.1540   36.0040   67.1420 C   0  0  0  0  0  0  0  0  0  0  0  0
   16.4710   35.7860   67.3450 C   0  0  0  0  0  0  0  0  0  0  0  0
   14.2380   32.9180   65.0680 C   0  0  0  0  0  3  0  0  0  0  0  0
   14.9750   31.6340   64.6350 C   0  0  0  0  0  2  0  0  0  0  0  0
   14.5680   31.3980   63.1650 C   0  0  0  0  0  2  0  0  0  0  0  0
   13.8890   32.6970   62.6450 C   0  0  0  0  0  2  0  0  0  0  0  0
   13.9780   33.7270   63.7760 C   0  0  0  0  0  2  0  0  0  0  0  0
   14.7900   33.0870   67.5890 C   0  0  0  0  0  2  0  0  0  0  0  0
   13.3290   32.9320   68.0570 C   0  0  0  0  0  2  0  0  0  0  0  0
   13.1070   33.4140   69.4370 C   0  0  0  0  0  0  0  0  0  0  0  0
   12.9840   32.5020   70.4950 C   0  0  0  0  0  3  0  0  0  0  0  0
   12.7780   32.9550   71.8000 C   0  0  0  0  0  3  0  0  0  0  0  0
   12.6970   34.3270   72.0470 C   0  0  0  0  0  0  0  0  0  0  0  0
   12.8200   35.2420   71.0000 C   0  0  0  0  0  3  0  0  0  0  0  0
   13.0270   34.7860   69.6940 C   0  0  0  0  0  3  0  0  0  0  0  0
   12.4510   34.7780   73.3240 O   0  0  0  0  0  0  0  0  0  0  0  0
   12.3030   34.0230   73.9000 H   0  0  0  0  0  0  0  0  0  0  0  0
   14.5760   37.0780   67.6880 O   0  0  0  0  0  0  0  0  0  0  0  0
   15.2050   37.4820   68.2980 H   0  0  0  0  0  0  0  0  0  0  0  0
   17.3760   36.8500   68.4300 S   0  0  0  0  0  0  0  0  0  0  0  0
   16.8650   36.3960   70.0600 C   0  0  0  0  0  0  0  0  0  0  0  0
   16.4930   37.3320   71.0650 C   0  0  0  0  0  0  0  0  0  0  0  0
   16.0710   36.8360   72.3050 C   0  0  0  0  0  3  0  0  0  0  0  0
   16.0600   35.4670   72.5670 C   0  0  0  0  0  0  0  0  0  0  0  0
   16.4380   34.5620   71.5690 C   0  0  0  0  0  0  0  0  0  0  0  0
   16.5030   33.1260   71.8480 C   0  0  0  0  0  1  0  0  0  0  0  0
   16.8510   35.0280   70.3310 C   0  0  0  0  0  3  0  0  0  0  0  0
   16.5470   38.8100   70.8620 C   0  0  0  0  0  0  0  0  0  0  0  0
   15.1430   39.4130   70.7240 C   0  0  0  0  0  1  0  0  0  0  0  0
   17.3540   39.1390   69.5910 C   0  0  0  0  0  1  0  0  0  0  0  0
   17.2450   39.5030   72.0510 C   0  0  0  0  0  1  0  0  0  0  0  0
   15.6400   35.0260   73.7510 N   0  0  0  0  0  0  0  0  0  0  0  0
   15.3710   35.6590   74.4570 H   0  0  0  0  0  0  0  0  0  0  0  0
   15.4550   34.0740   73.8870 H   0  0  0  0  0  0  0  0  0  0  0  0
  1  2  2  0  0  0  0
  1  7  1  0  0  0  0
  3  4  1  0  0  0  0
  3  1  1  0  0  0  0
  4 13  1  1  0  0  0
  5  4  1  0  0  0  0
  5  6  1  0  0  0  0
  6  7  2  0  0  0  0
  6 23  1  0  0  0  0
  7 25  1  0  0  0  0
  8  4  1  0  0  0  0
  9  8  1  0  0  0  0
 10  9  1  0  0  0  0
 11 10  1  0  0  0  0
 11 12  1  0  0  0  0
 12  8  1  0  0  0  0
 13 14  1  0  0  0  0
 14 15  1  0  0  0  0
 15 20  2  0  0  0  0
 15 16  1  0  0  0  0
 16 17  2  0  0  0  0
 17 18  1  0  0  0  0
 18 21  1  0  0  0  0
 19 18  2  0  0  0  0
 20 19  1  0  0  0  0
 21 22  1  0  0  0  0
 23 24  1  0  0  0  0
 25 26  1  0  0  0  0
 26 32  2  0  0  0  0
 26 27  1  0  0  0  0
 27 28  2  0  0  0  0
 28 29  1  0  0  0  0
 29 37  1  0  0  0  0
 30 31  1  0  0  0  0
 30 29  2  0  0  0  0
 32 30  1  0  0  0  0
 33 27  1  0  0  0  0
 33 36  1  0  0  0  0
 34 33  1  0  0  0  0
 35 33  1  0  0  0  0
 37 39  1  0  0  0  0
 37 38  1  0  0  0  0
M  END
>  <minimizedAffinity>
-8.54001427

$$$$

 OpenBabel09052209203D

 39 42  0  0  1  0  0  0  0  0999 V2000
   22.4200   26.6450   69.7730 C   0  0  0  0  0  0  0  0  0  0  0  0
   23.3550   26.8570   70.5530 O   0  0  0  0  0  0  0  0  0  0  0  0
   21.2300   26.0980   70.1550 O   0  0  0  0  0  0  0  0  0  0  0  0
   20.0450   26.3130   69.3100 C   0  0  1  0  0  0  0  0  0  0  0  0
   20.3970   25.8730   67.8530 C   0  0  0  0  0  2  0  0  0  0  0  0
   21.5930   26.7120   67.4480 C   0  0  0  0  0  0  0  0  0  0  0  0
   22.5720   27.0210   68.3260 C   0  0  0  0  0  0  0  0  0  0  0  0
   18.8970   25.3930   69.8260 C   0  0  0  0  0  3  0  0  0  0  0  0
   17.9180   26.0360   70.8300 C   0  0  0  0  0  2  0  0  0  0  0  0
   17.3870   24.8730   71.6930 C   0  0  0  0  0  2  0  0  0  0  0  0
   18.2920   23.6350   71.4320 C   0  0  0  0  0  2  0  0  0  0  0  0
   19.4080   24.0920   70.4880 C   0  0  0  0  0  2  0  0  0  0  0  0
   19.6960   27.8240   69.4490 C   0  0  0  0  0  2  0  0  0  0  0  0
   18.5440   28.2770   68.5300 C   0  0  0  0  0  2  0  0  0  0  0  0
   18.6970   29.6670   68.0490 C   0  0  0  0  0  0  0  0  0  0  0  0
   19.9560   30.1520   67.6680 C   0  0  0  0  0  3  0  0  0  0  0  0
   20.1010   31.4630   67.2090 C   0  0  0  0  0  3  0  0  0  0  0  0
   18.9800   32.2920   67.1290 C   0  0  0  0  0  0  0  0  0  0  0  0
   17.7220   31.8170   67.5050 C   0  0  0  0  0  3  0  0  0  0  0  0
   17.5800   30.5030   67.9640 C   0  0  0  0  0  3  0  0  0  0  0  0
   19.1230   33.5980   66.7190 O   0  0  0  0  0  0  0  0  0  0  0  0
   20.0570   33.7850   66.5890 H   0  0  0  0  0  0  0  0  0  0  0  0
   21.7790   26.9590   66.1470 O   0  0  0  0  0  0  0  0  0  0  0  0
   22.5830   27.4830   66.0510 H   0  0  0  0  0  0  0  0  0  0  0  0
   24.0210   27.8620   67.7600 S   0  0  0  0  0  0  0  0  0  0  0  0
   23.7390   29.5690   68.1210 C   0  0  0  0  0  0  0  0  0  0  0  0
   24.1390   30.6380   67.2700 C   0  0  0  0  0  0  0  0  0  0  0  0
   23.8210   31.9450   67.6560 C   0  0  0  0  0  3  0  0  0  0  0  0
   23.1710   32.2010   68.8640 C   0  0  0  0  0  0  0  0  0  0  0  0
   22.7940   31.1380   69.6920 C   0  0  0  0  0  0  0  0  0  0  0  0
   22.1780   31.3910   70.9960 C   0  0  0  0  0  1  0  0  0  0  0  0
   23.0910   29.8350   69.3270 C   0  0  0  0  0  3  0  0  0  0  0  0
   24.8920   30.4270   65.9980 C   0  0  0  0  0  0  0  0  0  0  0  0
   25.3300   31.7580   65.3730 C   0  0  0  0  0  1  0  0  0  0  0  0
   24.0150   29.6690   64.9840 C   0  0  0  0  0  1  0  0  0  0  0  0
   26.1590   29.5810   66.2440 C   0  0  0  0  0  1  0  0  0  0  0  0
   22.8700   33.4540   69.1970 N   0  0  0  0  0  0  0  0  0  0  0  0
   23.1320   34.2060   68.6170 H   0  0  0  0  0  0  0  0  0  0  0  0
   22.2620   33.6340   69.9430 H   0  0  0  0  0  0  0  0  0  0  0  0
  1  3  1  0  0  0  0
  1  2  2  0  0  0  0
  4 13  1  1  0  0  0
  4  8  1  0  0  0  0
  4  3  1  0  0  0  0
  5  4  1  0  0  0  0
  6  5  1  0  0  0  0
  6  7  2  0  0  0  0
  7  1  1  0  0  0  0
  8 12  1  0  0  0  0
  8  9  1  0  0  0  0
  9 10  1  0  0  0  0
 11 10  1  0  0  0  0
 12 11  1  0  0  0  0
 14 13  1  0  0  0  0
 15 14  1  0  0  0  0
 16 15  2  0  0  0  0
 17 16  1  0  0  0  0
 18 17  2  0  0  0  0
 18 19  1  0  0  0  0
 19 20  2  0  0  0  0
 20 15  1  0  0  0  0
 21 18  1  0  0  0  0
 22 21  1  0  0  0  0
 23  6  1  0  0  0  0
 24 23  1  0  0  0  0
 25 26  1  0  0  0  0
 25  7  1  0  0  0  0
 26 32  1  0  0  0  0
 27 28  1  0  0  0  0
 27 26  2  0  0  0  0
 28 29  2  0  0  0  0
 29 37  1  0  0  0  0
 29 30  1  0  0  0  0
 30 31  1  0  0  0  0
 32 30  2  0  0  0  0
 33 36  1  0  0  0  0
 33 27  1  0  0  0  0
 34 33  1  0  0  0  0
 35 33  1  0  0  0  0
 37 39  1  0  0  0  0
 38 37  1  0  0  0  0
M  END
>  <minimizedAffinity>
-8.52484703

$$$$

 OpenBabel09052209203D

 39 42  0  0  1  0  0  0  0  0999 V2000
   16.0570   31.1440   72.5700 C   0  0  0  0  0  0  0  0  0  0  0  0
   15.4280   30.2030   72.0740 O   0  0  0  0  0  0  0  0  0  0  0  0
   16.8640   31.9730   71.8480 O   0  0  0  0  0  0  0  0  0  0  0  0
   17.1840   33.3030   72.3900 C   0  0  1  0  0  0  0  0  0  0  0  0
   17.7550   33.1180   73.8330 C   0  0  0  0  0  2  0  0  0  0  0  0
   16.6780   32.3870   74.6110 C   0  0  0  0  0  0  0  0  0  0  0  0
   15.9260   31.4200   74.0410 C   0  0  0  0  0  0  0  0  0  0  0  0
   18.3020   33.9400   71.5100 C   0  0  0  0  0  3  0  0  0  0  0  0
   19.1660   35.0190   72.1950 C   0  0  0  0  0  2  0  0  0  0  0  0
   19.6440   35.9490   71.0610 C   0  0  0  0  0  2  0  0  0  0  0  0
   18.7990   35.6280   69.7940 C   0  0  0  0  0  2  0  0  0  0  0  0
   17.7640   34.5760   70.2060 C   0  0  0  0  0  2  0  0  0  0  0  0
   15.8560   34.1140   72.3330 C   0  0  0  0  0  2  0  0  0  0  0  0
   15.8640   35.3730   73.2230 C   0  0  0  0  0  2  0  0  0  0  0  0
   15.6050   36.6180   72.4700 C   0  0  0  0  0  0  0  0  0  0  0  0
   14.3270   36.8870   71.9610 C   0  0  0  0  0  3  0  0  0  0  0  0
   14.0790   38.0650   71.2530 C   0  0  0  0  0  3  0  0  0  0  0  0
   15.1150   38.9800   71.0560 C   0  0  0  0  0  0  0  0  0  0  0  0
   16.3920   38.7220   71.5610 C   0  0  0  0  0  3  0  0  0  0  0  0
   16.6360   37.5410   72.2700 C   0  0  0  0  0  3  0  0  0  0  0  0
   14.8890   40.1230   70.3230 O   0  0  0  0  0  0  0  0  0  0  0  0
   13.9930   40.1000   69.9760 H   0  0  0  0  0  0  0  0  0  0  0  0
   16.6300   32.5590   75.9350 O   0  0  0  0  0  0  0  0  0  0  0  0
   15.9100   32.0180   76.2840 H   0  0  0  0  0  0  0  0  0  0  0  0
   14.7990   30.4890   75.0360 S   0  0  0  0  0  0  0  0  0  0  0  0
   13.2080   31.1890   74.7160 C   0  0  0  0  0  0  0  0  0  0  0  0
   11.9970   30.4410   74.7100 C   0  0  0  0  0  0  0  0  0  0  0  0
   10.7980   31.1260   74.4780 C   0  0  0  0  0  3  0  0  0  0  0  0
   10.7910   32.4950   74.2130 C   0  0  0  0  0  0  0  0  0  0  0  0
   11.9930   33.2120   74.2130 C   0  0  0  0  0  0  0  0  0  0  0  0
   12.0130   34.6340   73.8660 C   0  0  0  0  0  1  0  0  0  0  0  0
   13.1910   32.5580   74.4490 C   0  0  0  0  0  3  0  0  0  0  0  0
   11.9520   28.9640   74.9230 C   0  0  0  0  0  0  0  0  0  0  0  0
   12.9520   28.2310   74.0200 C   0  0  0  0  0  1  0  0  0  0  0  0
   10.5370   28.4310   74.6290 C   0  0  0  0  0  1  0  0  0  0  0  0
   12.2900   28.6100   76.3870 C   0  0  0  0  0  1  0  0  0  0  0  0
    9.6340   33.1210   74.0100 N   0  0  0  0  0  0  0  0  0  0  0  0
    8.7850   32.6200   74.0100 H   0  0  0  0  0  0  0  0  0  0  0  0
    9.5950   34.0990   74.0040 H   0  0  0  0  0  0  0  0  0  0  0  0
  1  7  1  0  0  0  0
  2  1  2  0  0  0  0
  3  4  1  0  0  0  0
  3  1  1  0  0  0  0
  4 13  1  1  0  0  0
  4  5  1  0  0  0  0
  5  6  1  0  0  0  0
  6 23  1  0  0  0  0
  7  6  2  0  0  0  0
  7 25  1  0  0  0  0
  8  9  1  0  0  0  0
  8  4  1  0  0  0  0
 10  9  1  0  0  0  0
 11 12  1  0  0  0  0
 11 10  1  0  0  0  0
 12  8  1  0  0  0  0
 13 14  1  0  0  0  0
 15 14  1  0  0  0  0
 16 15  2  0  0  0  0
 17 16  1  0  0  0  0
 18 17  2  0  0  0  0
 18 19  1  0  0  0  0
 19 20  2  0  0  0  0
 20 15  1  0  0  0  0
 21 18  1  0  0  0  0
 22 21  1  0  0  0  0
 23 24  1  0  0  0  0
 26 25  1  0  0  0  0
 27 26  1  0  0  0  0
 27 33  1  0  0  0  0
 28 27  2  0  0  0  0
 29 30  2  0  0  0  0
 29 28  1  0  0  0  0
 30 32  1  0  0  0  0
 31 30  1  0  0  0  0
 32 26  2  0  0  0  0
 33 36  1  0  0  0  0
 34 33  1  0  0  0  0
 35 33  1  0  0  0  0
 37 29  1  0  0  0  0
 38 37  1  0  0  0  0
 39 37  1  0  0  0  0
M  END
>  <minimizedAffinity>
-8.51280022

$$$$
