
 OpenBabel09132204463D

 27 29  0  0  0  0  0  0  0  0999 V2000
    3.7100   -8.5970    3.6440 C   0  0  0  0  0  0  0  0  0  0  0  0
    3.8690   -7.3600    3.1310 C   0  0  0  0  0  2  0  0  0  0  0  0
    5.0430   -6.9090    2.4600 C   0  0  0  0  0  0  0  0  0  0  0  0
    5.8620   -7.6220    1.7020 N   0  0  0  0  0  0  0  0  0  0  0  0
    6.9090   -6.8450    1.2480 C   0  0  0  0  0  3  0  0  0  0  0  0
    6.9120   -5.5330    1.6700 C   0  0  0  0  0  0  0  0  0  0  0  0
    5.5270   -5.2520    2.6380 S   0  0  0  0  0  0  0  0  0  0  0  0
    7.8750   -4.4630    1.4130 C   0  0  0  0  0  0  0  0  0  0  0  0
    8.3240   -3.6800    2.4930 C   0  0  0  0  0  3  0  0  0  0  0  0
    9.2550   -2.6570    2.3020 C   0  0  0  0  0  3  0  0  0  0  0  0
    9.7560   -2.4010    1.0290 C   0  0  0  0  0  3  0  0  0  0  0  0
    9.3250   -3.1690   -0.0530 C   0  0  0  0  0  3  0  0  0  0  0  0
    8.3920   -4.1960    0.1340 C   0  0  0  0  0  0  0  0  0  0  0  0
    7.9040   -5.0850   -1.2680 Cl  0  0  0  0  0  0  0  0  0  0  0  0
    4.7050   -9.5630    3.5760 N   0  0  0  0  0  4  0  0  0  0  0  0
    4.6890  -10.8670    3.1370 C   0  0  0  0  0  0  0  0  0  0  0  0
    5.6330  -11.6180    3.3990 O   0  0  0  0  0  0  0  0  0  0  0  0
    5.6010   -9.2910    3.9750 H   0  0  0  0  0  0  0  0  0  0  0  0
    3.6130  -11.3940    2.2730 C   0  0  0  0  0  0  0  0  0  0  0  0
    2.6590  -12.2500    2.8360 C   0  0  0  0  0  3  0  0  0  0  0  0
    1.6770  -12.8270    2.0310 C   0  0  0  0  0  3  0  0  0  0  0  0
    1.6570  -12.5620    0.6600 C   0  0  0  0  0  3  0  0  0  0  0  0
    2.6220  -11.7290    0.0940 C   0  0  0  0  0  3  0  0  0  0  0  0
    3.6100  -11.1560    0.8960 C   0  0  0  0  0  3  0  0  0  0  0  0
    1.3820   -9.1050    3.6620 O   0  0  0  0  0  0  0  0  0  0  0  0
    2.3520   -8.7330    4.3870 C   0  0  0  0  0  0  0  0  0  0  0  0
    2.3710   -8.3850    5.6020 O   0  0  0  0  0  1  0  0  0  0  0  0
  1 26  1  0  0  0  0
  2  1  1  0  0  0  0
  3  7  1  0  0  0  0
  3  2  1  0  0  0  0
  4  3  2  0  0  0  0
  5  6  2  0  0  0  0
  5  4  1  0  0  0  0
  6  7  1  0  0  0  0
  8  6  1  0  0  0  0
  8  9  1  0  0  0  0
 10  9  2  0  0  0  0
 11 10  1  0  0  0  0
 12 13  1  0  0  0  0
 12 11  2  0  0  0  0
 13  8  2  0  0  0  0
 14 13  1  0  0  0  0
 15  1  2  0  0  0  0
 15 18  1  0  0  0  0
 16 17  2  0  0  0  0
 16 15  1  0  0  0  0
 19 20  1  0  0  0  0
 19 16  1  0  0  0  0
 21 20  2  0  0  0  0
 22 21  1  0  0  0  0
 23 22  2  0  0  0  0
 23 24  1  0  0  0  0
 24 19  2  0  0  0  0
 25 26  2  0  0  0  0
 26 27  1  0  0  0  0
M  END
>  <minimizedAffinity>
-6.14747858

$$$$
