
 OpenBabel09132204463D

 27 29  0  0  0  0  0  0  0  0999 V2000
    3.9800   -8.9990    1.2320 C   0  0  0  0  0  0  0  0  0  0  0  0
    4.4960   -8.0360    0.4400 C   0  0  0  0  0  2  0  0  0  0  0  0
    5.7550   -7.4030    0.6550 C   0  0  0  0  0  0  0  0  0  0  0  0
    6.8380   -7.9290    1.2050 N   0  0  0  0  0  0  0  0  0  0  0  0
    7.8550   -6.9980    1.2690 C   0  0  0  0  0  3  0  0  0  0  0  0
    7.5540   -5.7430    0.7870 C   0  0  0  0  0  0  0  0  0  0  0  0
    5.9480   -5.7420    0.1900 S   0  0  0  0  0  0  0  0  0  0  0  0
    8.3710   -4.5310    0.7380 C   0  0  0  0  0  0  0  0  0  0  0  0
    9.2560   -4.3520   -0.3400 C   0  0  0  0  0  3  0  0  0  0  0  0
   10.0460   -3.2040   -0.4410 C   0  0  0  0  0  3  0  0  0  0  0  0
    9.9620   -2.2140    0.5340 C   0  0  0  0  0  3  0  0  0  0  0  0
    9.0880   -2.3730    1.6100 C   0  0  0  0  0  3  0  0  0  0  0  0
    8.2940   -3.5230    1.7140 C   0  0  0  0  0  0  0  0  0  0  0  0
    7.2520   -3.6400    3.0900 Cl  0  0  0  0  0  0  0  0  0  0  0  0
    4.6390   -9.4620    2.3630 N   0  0  0  0  0  4  0  0  0  0  0  0
    4.7160   -8.9700    3.6460 C   0  0  0  0  0  0  0  0  0  0  0  0
    5.5630   -9.4120    4.4280 O   0  0  0  0  0  0  0  0  0  0  0  0
    5.2260  -10.2810    2.2180 H   0  0  0  0  0  0  0  0  0  0  0  0
    3.7520   -7.9780    4.1670 C   0  0  0  0  0  0  0  0  0  0  0  0
    4.0400   -6.6170    4.0130 C   0  0  0  0  0  3  0  0  0  0  0  0
    3.1910   -5.6570    4.5630 C   0  0  0  0  0  3  0  0  0  0  0  0
    2.0630   -6.0560    5.2830 C   0  0  0  0  0  3  0  0  0  0  0  0
    1.7880   -7.4130    5.4590 C   0  0  0  0  0  3  0  0  0  0  0  0
    2.6400   -8.3760    4.9150 C   0  0  0  0  0  3  0  0  0  0  0  0
    2.1940  -10.5710    1.1250 O   0  0  0  0  0  1  0  0  0  0  0  0
    2.5540   -9.4100    0.7710 C   0  0  0  0  0  0  0  0  0  0  0  0
    1.9660   -8.5640    0.0390 O   0  0  0  0  0  0  0  0  0  0  0  0
  1 15  2  3  0  0  0
  2  3  1  0  0  0  0
  2  1  1  0  0  0  0
  3  4  2  0  0  0  0
  4  5  1  0  0  0  0
  6  5  2  0  0  0  0
  7  3  1  0  0  0  0
  7  6  1  0  0  0  0
  8  6  1  0  0  0  0
  8 13  1  0  0  0  0
  9  8  2  0  0  0  0
 10  9  1  0  0  0  0
 10 11  2  0  0  0  0
 11 12  1  0  0  0  0
 12 13  2  0  0  0  0
 13 14  1  0  0  0  0
 15 16  1  0  0  0  0
 16 19  1  0  0  0  0
 16 17  2  0  0  0  0
 18 15  1  0  0  0  0
 19 24  1  0  0  0  0
 20 19  2  0  0  0  0
 20 21  1  0  0  0  0
 21 22  2  0  0  0  0
 22 23  1  0  0  0  0
 24 23  2  0  0  0  0
 26 25  1  0  0  0  0
 26  1  1  0  0  0  0
 27 26  2  0  0  0  0
M  END
>  <minimizedAffinity>
-6.76253653

$$$$
