
 OpenBabel09132204463D

 27 29  0  0  0  0  0  0  0  0999 V2000
    4.7050   -7.3230    0.6070 C   0  0  0  0  0  0  0  0  0  0  0  0
    5.3980   -6.4740    1.3920 C   0  0  0  0  0  2  0  0  0  0  0  0
    4.9250   -5.9500    2.6300 C   0  0  0  0  0  0  0  0  0  0  0  0
    4.6970   -6.6150    3.7520 N   0  0  0  0  0  0  0  0  0  0  0  0
    4.2150   -5.7710    4.7320 C   0  0  0  0  0  3  0  0  0  0  0  0
    4.0500   -4.4540    4.3640 C   0  0  0  0  0  0  0  0  0  0  0  0
    4.5590   -4.2570    2.7400 S   0  0  0  0  0  0  0  0  0  0  0  0
    3.5330   -3.3190    5.1280 C   0  0  0  0  0  0  0  0  0  0  0  0
    2.1970   -2.9220    4.9340 C   0  0  0  0  0  3  0  0  0  0  0  0
    1.6520   -1.8550    5.6520 C   0  0  0  0  0  3  0  0  0  0  0  0
    2.4310   -1.1690    6.5780 C   0  0  0  0  0  3  0  0  0  0  0  0
    3.7580   -1.5500    6.7860 C   0  0  0  0  0  3  0  0  0  0  0  0
    4.3080   -2.6200    6.0690 C   0  0  0  0  0  0  0  0  0  0  0  0
    5.9640   -3.0110    6.3810 Cl  0  0  0  0  0  0  0  0  0  0  0  0
    3.4300   -7.7650    0.9360 N   0  0  0  0  0  4  0  0  0  0  0  0
    2.9610   -8.9930    1.3420 C   0  0  0  0  0  0  0  0  0  0  0  0
    1.7480   -9.2220    1.3410 O   0  0  0  0  0  0  0  0  0  0  0  0
    2.6860   -7.0830    0.7980 H   0  0  0  0  0  0  0  0  0  0  0  0
    3.8560  -10.0410    1.8740 C   0  0  0  0  0  0  0  0  0  0  0  0
    3.8330  -11.3080    1.2820 C   0  0  0  0  0  3  0  0  0  0  0  0
    4.6080  -12.3410    1.8100 C   0  0  0  0  0  3  0  0  0  0  0  0
    5.3920  -12.1130    2.9420 C   0  0  0  0  0  3  0  0  0  0  0  0
    5.3970  -10.8570    3.5500 C   0  0  0  0  0  3  0  0  0  0  0  0
    4.6180   -9.8230    3.0270 C   0  0  0  0  0  3  0  0  0  0  0  0
    5.4700   -8.8470   -1.0570 O   0  0  0  0  0  1  0  0  0  0  0  0
    5.4670   -7.6280   -0.7120 C   0  0  0  0  0  0  0  0  0  0  0  0
    6.0500   -6.6360   -1.2330 O   0  0  0  0  0  0  0  0  0  0  0  0
  1 15  2  0  0  0  0
  1  2  1  0  0  0  0
  2  3  1  0  0  0  0
  3  7  1  0  0  0  0
  3  4  2  0  0  0  0
  4  5  1  0  0  0  0
  6  5  2  0  0  0  0
  6  8  1  0  0  0  0
  7  6  1  0  0  0  0
  8 13  1  0  0  0  0
  9  8  2  0  0  0  0
  9 10  1  0  0  0  0
 10 11  2  0  0  0  0
 11 12  1  0  0  0  0
 13 14  1  0  0  0  0
 13 12  2  0  0  0  0
 15 16  1  0  0  0  0
 16 19  1  0  0  0  0
 17 16  2  0  0  0  0
 18 15  1  0  0  0  0
 19 24  1  0  0  0  0
 20 21  1  0  0  0  0
 20 19  2  0  0  0  0
 21 22  2  0  0  0  0
 22 23  1  0  0  0  0
 24 23  2  0  0  0  0
 25 26  1  0  0  0  0
 26  1  1  0  0  0  0
 27 26  2  0  0  0  0
M  END
>  <minimizedAffinity>
-6.28162622

$$$$
