
 OpenBabel09132204463D

 27 29  0  0  0  0  0  0  0  0999 V2000
    4.0400  -11.0200    4.1660 C   0  0  0  0  0  0  0  0  0  0  0  0
    4.7840   -9.9770    4.5890 C   0  0  0  0  0  2  0  0  0  0  0  0
    4.9670   -8.7670    3.8590 C   0  0  0  0  0  0  0  0  0  0  0  0
    4.3220   -7.6220    4.0230 N   0  0  0  0  0  0  0  0  0  0  0  0
    4.7540   -6.6820    3.1090 C   0  0  0  0  0  3  0  0  0  0  0  0
    5.7200   -7.1050    2.2220 C   0  0  0  0  0  0  0  0  0  0  0  0
    6.1350   -8.7290    2.5760 S   0  0  0  0  0  0  0  0  0  0  0  0
    6.3630   -6.3920    1.1180 C   0  0  0  0  0  0  0  0  0  0  0  0
    7.5920   -5.7500    1.3500 C   0  0  0  0  0  3  0  0  0  0  0  0
    8.2540   -5.0700    0.3250 C   0  0  0  0  0  3  0  0  0  0  0  0
    7.6990   -5.0240   -0.9510 C   0  0  0  0  0  3  0  0  0  0  0  0
    6.4810   -5.6570   -1.2000 C   0  0  0  0  0  3  0  0  0  0  0  0
    5.8150   -6.3400   -0.1750 C   0  0  0  0  0  0  0  0  0  0  0  0
    4.3030   -7.0820   -0.5720 Cl  0  0  0  0  0  0  0  0  0  0  0  0
    3.3800  -11.0130    2.9440 N   0  0  0  0  0  4  0  0  0  0  0  0
    2.0450  -10.9270    2.6240 C   0  0  0  0  0  0  0  0  0  0  0  0
    1.6660  -11.1890    1.4780 O   0  0  0  0  0  0  0  0  0  0  0  0
    3.9740  -11.1580    2.1300 H   0  0  0  0  0  0  0  0  0  0  0  0
    1.0340  -10.4380    3.5850 C   0  0  0  0  0  0  0  0  0  0  0  0
    0.0040  -11.3020    3.9730 C   0  0  0  0  0  3  0  0  0  0  0  0
   -1.0080  -10.8460    4.8170 C   0  0  0  0  0  3  0  0  0  0  0  0
   -1.0030   -9.5220    5.2590 C   0  0  0  0  0  3  0  0  0  0  0  0
    0.0100   -8.6520    4.8520 C   0  0  0  0  0  3  0  0  0  0  0  0
    1.0210   -9.1040    4.0030 C   0  0  0  0  0  3  0  0  0  0  0  0
    5.2450  -12.8030    5.1880 O   0  0  0  0  0  0  0  0  0  0  0  0
    4.1230  -12.2150    5.1550 C   0  0  0  0  0  0  0  0  0  0  0  0
    3.0410  -12.4970    5.7430 O   0  0  0  0  0  1  0  0  0  0  0  0
  1  2  1  0  0  0  0
  1 26  1  0  0  0  0
  3  4  2  0  0  0  0
  3  2  1  0  0  0  0
  5  4  1  0  0  0  0
  6  7  1  0  0  0  0
  6  5  2  0  0  0  0
  7  3  1  0  0  0  0
  8  9  1  0  0  0  0
  8  6  1  0  0  0  0
 10  9  2  0  0  0  0
 11 10  1  0  0  0  0
 12 11  2  0  0  0  0
 12 13  1  0  0  0  0
 13  8  2  0  0  0  0
 14 13  1  0  0  0  0
 15  1  2  0  0  0  0
 16 15  1  0  0  0  0
 16 19  1  0  0  0  0
 17 16  2  0  0  0  0
 18 15  1  0  0  0  0
 19 20  2  0  0  0  0
 19 24  1  0  0  0  0
 20 21  1  0  0  0  0
 21 22  2  0  0  0  0
 23 22  1  0  0  0  0
 24 23  2  0  0  0  0
 26 25  2  0  0  0  0
 26 27  1  0  0  0  0
M  END
>  <minimizedAffinity>
-6.11576271

$$$$
