
 OpenBabel09132204463D

 27 29  0  0  0  0  0  0  0  0999 V2000
    5.7640   -6.2680    0.4800 C   0  0  0  0  0  0  0  0  0  0  0  0
    6.8550   -5.8160   -0.1710 C   0  0  0  0  0  2  0  0  0  0  0  0
    7.7920   -4.8870    0.3710 C   0  0  0  0  0  0  0  0  0  0  0  0
    8.9350   -4.4900   -0.1670 N   0  0  0  0  0  0  0  0  0  0  0  0
    9.5860   -3.6040    0.6680 C   0  0  0  0  0  3  0  0  0  0  0  0
    8.9580   -3.3310    1.8640 C   0  0  0  0  0  0  0  0  0  0  0  0
    7.4720   -4.1820    1.9240 S   0  0  0  0  0  0  0  0  0  0  0  0
    9.3790   -2.4820    2.9770 C   0  0  0  0  0  0  0  0  0  0  0  0
    9.8120   -3.0920    4.1690 C   0  0  0  0  0  3  0  0  0  0  0  0
   10.2400   -2.3260    5.2560 C   0  0  0  0  0  3  0  0  0  0  0  0
   10.2460   -0.9370    5.1690 C   0  0  0  0  0  3  0  0  0  0  0  0
    9.8230   -0.3150    3.9930 C   0  0  0  0  0  3  0  0  0  0  0  0
    9.3940   -1.0790    2.9020 C   0  0  0  0  0  0  0  0  0  0  0  0
    8.8730   -0.2210    1.4930 Cl  0  0  0  0  0  0  0  0  0  0  0  0
    5.4390   -5.8500    1.7630 N   0  0  0  0  0  4  0  0  0  0  0  0
    4.8320   -6.5000    2.8140 C   0  0  0  0  0  0  0  0  0  0  0  0
    4.4190   -5.8560    3.7830 O   0  0  0  0  0  0  0  0  0  0  0  0
    5.6220   -4.8680    1.9590 H   0  0  0  0  0  0  0  0  0  0  0  0
    4.7310   -7.9730    2.8750 C   0  0  0  0  0  0  0  0  0  0  0  0
    3.4610   -8.5600    2.8400 C   0  0  0  0  0  3  0  0  0  0  0  0
    3.3270   -9.9420    2.9750 C   0  0  0  0  0  3  0  0  0  0  0  0
    4.4600  -10.7360    3.1640 C   0  0  0  0  0  3  0  0  0  0  0  0
    5.7240  -10.1500    3.2240 C   0  0  0  0  0  3  0  0  0  0  0  0
    5.8610   -8.7660    3.0950 C   0  0  0  0  0  3  0  0  0  0  0  0
    5.5720   -7.9480   -1.1980 O   0  0  0  0  0  0  0  0  0  0  0  0
    4.9080   -7.1960   -0.4250 C   0  0  0  0  0  0  0  0  0  0  0  0
    3.6590   -7.0300   -0.3290 O   0  0  0  0  0  1  0  0  0  0  0  0
  1 15  2  0  0  0  0
  2  3  1  0  0  0  0
  2  1  1  0  0  0  0
  3  7  1  0  0  0  0
  4  3  2  0  0  0  0
  4  5  1  0  0  0  0
  5  6  2  0  0  0  0
  6  7  1  0  0  0  0
  6  8  1  0  0  0  0
  8  9  1  0  0  0  0
  9 10  2  0  0  0  0
 11 10  1  0  0  0  0
 12 11  2  0  0  0  0
 13  8  2  0  0  0  0
 13 12  1  0  0  0  0
 14 13  1  0  0  0  0
 15 18  1  0  0  0  0
 15 16  1  0  0  0  0
 16 19  1  0  0  0  0
 16 17  2  0  0  0  0
 19 24  1  0  0  0  0
 20 19  2  0  0  0  0
 20 21  1  0  0  0  0
 21 22  2  0  0  0  0
 22 23  1  0  0  0  0
 24 23  2  0  0  0  0
 25 26  2  0  0  0  0
 26 27  1  0  0  0  0
 26  1  1  0  0  0  0
M  END
>  <minimizedAffinity>
-5.8589654

$$$$
