
 OpenBabel09132204463D

 27 29  0  0  0  0  0  0  0  0999 V2000
    8.1990   -4.4590    1.1160 C   0  0  0  0  0  0  0  0  0  0  0  0
    6.9290   -4.9120    1.0710 C   0  0  0  0  0  2  0  0  0  0  0  0
    6.0620   -4.9990    2.2000 C   0  0  0  0  0  0  0  0  0  0  0  0
    6.0510   -4.2180    3.2690 N   0  0  0  0  0  0  0  0  0  0  0  0
    5.0870   -4.6310    4.1660 C   0  0  0  0  0  3  0  0  0  0  0  0
    4.3630   -5.7460    3.8010 C   0  0  0  0  0  0  0  0  0  0  0  0
    4.8810   -6.2690    2.2550 S   0  0  0  0  0  0  0  0  0  0  0  0
    3.3100   -6.4620    4.5200 C   0  0  0  0  0  0  0  0  0  0  0  0
    3.4710   -7.8380    4.7650 C   0  0  0  0  0  3  0  0  0  0  0  0
    2.5010   -8.5630    5.4610 C   0  0  0  0  0  3  0  0  0  0  0  0
    1.3550   -7.9250    5.9260 C   0  0  0  0  0  3  0  0  0  0  0  0
    1.1790   -6.5600    5.6950 C   0  0  0  0  0  3  0  0  0  0  0  0
    2.1490   -5.8300    4.9980 C   0  0  0  0  0  0  0  0  0  0  0  0
    1.8390   -4.1470    4.7440 Cl  0  0  0  0  0  0  0  0  0  0  0  0
    8.7960   -4.0390    2.2970 N   0  0  0  0  0  4  0  0  0  0  0  0
    9.5370   -2.9210    2.6030 C   0  0  0  0  0  0  0  0  0  0  0  0
   10.1790   -2.8750    3.6570 O   0  0  0  0  0  0  0  0  0  0  0  0
    8.7340   -4.6970    3.0720 H   0  0  0  0  0  0  0  0  0  0  0  0
    9.5280   -1.7140    1.7520 C   0  0  0  0  0  0  0  0  0  0  0  0
   10.1180   -1.7820    0.4850 C   0  0  0  0  0  3  0  0  0  0  0  0
   10.1950   -0.6390   -0.3120 C   0  0  0  0  0  3  0  0  0  0  0  0
    9.7010    0.5770    0.1650 C   0  0  0  0  0  3  0  0  0  0  0  0
    9.1360    0.6520    1.4380 C   0  0  0  0  0  3  0  0  0  0  0  0
    9.0620   -0.4890    2.2400 C   0  0  0  0  0  3  0  0  0  0  0  0
   10.1600   -4.6050   -0.2290 O   0  0  0  0  0  1  0  0  0  0  0  0
    8.8940   -4.5800   -0.2680 C   0  0  0  0  0  0  0  0  0  0  0  0
    8.1120   -4.5630   -1.2610 O   0  0  0  0  0  0  0  0  0  0  0  0
  1 15  2  0  0  0  0
  2  1  1  0  0  0  0
  2  3  1  0  0  0  0
  3  7  1  0  0  0  0
  3  4  2  0  0  0  0
  4  5  1  0  0  0  0
  6  5  2  0  0  0  0
  6  8  1  0  0  0  0
  7  6  1  0  0  0  0
  8  9  2  0  0  0  0
  8 13  1  0  0  0  0
  9 10  1  0  0  0  0
 10 11  2  0  0  0  0
 12 11  1  0  0  0  0
 13 12  2  0  0  0  0
 14 13  1  0  0  0  0
 15 16  1  0  0  0  0
 15 18  1  0  0  0  0
 16 17  2  0  0  0  0
 19 24  1  0  0  0  0
 19 16  1  0  0  0  0
 20 19  2  0  0  0  0
 21 22  2  0  0  0  0
 21 20  1  0  0  0  0
 22 23  1  0  0  0  0
 23 24  2  0  0  0  0
 26 25  1  0  0  0  0
 26  1  1  0  0  0  0
 27 26  2  0  0  0  0
M  END
>  <minimizedAffinity>
-5.99083376

$$$$
