
 OpenBabel09132204463D

 27 29  0  0  0  0  0  0  0  0999 V2000
    3.7890   -8.3850    1.4290 C   0  0  0  0  0  0  0  0  0  0  0  0
    4.7350   -8.1700    0.4920 C   0  0  0  0  0  2  0  0  0  0  0  0
    5.9580   -7.4750    0.7240 C   0  0  0  0  0  0  0  0  0  0  0  0
    7.0050   -7.8950    1.4190 N   0  0  0  0  0  0  0  0  0  0  0  0
    7.9920   -6.9310    1.4460 C   0  0  0  0  0  3  0  0  0  0  0  0
    7.7030   -5.7540    0.7910 C   0  0  0  0  0  0  0  0  0  0  0  0
    6.1510   -5.8770    0.0750 S   0  0  0  0  0  0  0  0  0  0  0  0
    8.4930   -4.5310    0.6570 C   0  0  0  0  0  0  0  0  0  0  0  0
    9.3280   -4.3820   -0.4660 C   0  0  0  0  0  3  0  0  0  0  0  0
   10.0900   -3.2260   -0.6480 C   0  0  0  0  0  3  0  0  0  0  0  0
   10.0300   -2.1980    0.2880 C   0  0  0  0  0  3  0  0  0  0  0  0
    9.2060   -2.3270    1.4070 C   0  0  0  0  0  3  0  0  0  0  0  0
    8.4400   -3.4840    1.5930 C   0  0  0  0  0  0  0  0  0  0  0  0
    7.4600   -3.5630    3.0170 Cl  0  0  0  0  0  0  0  0  0  0  0  0
    3.9170   -7.9250    2.7330 N   0  0  0  0  0  4  0  0  0  0  0  0
    3.9040   -8.5810    3.9420 C   0  0  0  0  0  0  0  0  0  0  0  0
    3.7870   -7.9410    4.9910 O   0  0  0  0  0  0  0  0  0  0  0  0
    3.9700   -6.9130    2.8320 H   0  0  0  0  0  0  0  0  0  0  0  0
    4.1180  -10.0390    4.0490 C   0  0  0  0  0  0  0  0  0  0  0  0
    5.2660  -10.5930    3.4700 C   0  0  0  0  0  3  0  0  0  0  0  0
    5.4580  -11.9750    3.4860 C   0  0  0  0  0  3  0  0  0  0  0  0
    4.4940  -12.8050    4.0620 C   0  0  0  0  0  3  0  0  0  0  0  0
    3.3380  -12.2560    4.6160 C   0  0  0  0  0  3  0  0  0  0  0  0
    3.1400  -10.8750    4.5970 C   0  0  0  0  0  3  0  0  0  0  0  0
    2.3310  -10.2620    1.2630 O   0  0  0  0  0  1  0  0  0  0  0  0
    2.5440   -9.0920    0.8260 C   0  0  0  0  0  0  0  0  0  0  0  0
    1.9450   -8.4410   -0.0770 O   0  0  0  0  0  0  0  0  0  0  0  0
  1 15  2  0  0  0  0
  2  3  1  0  0  0  0
  2  1  1  0  0  0  0
  3  4  2  0  0  0  0
  4  5  1  0  0  0  0
  6  5  2  0  0  0  0
  7  3  1  0  0  0  0
  7  6  1  0  0  0  0
  8  6  1  0  0  0  0
  8 13  1  0  0  0  0
  9  8  2  0  0  0  0
 10  9  1  0  0  0  0
 10 11  2  0  0  0  0
 11 12  1  0  0  0  0
 12 13  2  0  0  0  0
 13 14  1  0  0  0  0
 15 18  1  0  0  0  0
 15 16  1  0  0  0  0
 16 19  1  0  0  0  0
 16 17  2  0  0  0  0
 19 24  1  0  0  0  0
 20 21  1  0  0  0  0
 20 19  2  0  0  0  0
 21 22  2  0  0  0  0
 22 23  1  0  0  0  0
 24 23  2  0  0  0  0
 26 25  1  0  0  0  0
 26  1  1  0  0  0  0
 27 26  2  0  0  0  0
M  END
>  <minimizedAffinity>
-6.23434019

$$$$
