
 OpenBabel09132204463D

 27 29  0  0  0  0  0  0  0  0999 V2000
    4.0770   -9.8090    1.5240 C   0  0  0  0  0  0  0  0  0  0  0  0
    4.0050   -8.6040    0.9220 C   0  0  0  0  0  2  0  0  0  0  0  0
    4.7600   -7.4600    1.3120 C   0  0  0  0  0  0  0  0  0  0  0  0
    4.4690   -6.5880    2.2650 N   0  0  0  0  0  0  0  0  0  0  0  0
    5.4250   -5.5950    2.3290 C   0  0  0  0  0  3  0  0  0  0  0  0
    6.4480   -5.6850    1.4110 C   0  0  0  0  0  0  0  0  0  0  0  0
    6.2260   -7.0920    0.4590 S   0  0  0  0  0  0  0  0  0  0  0  0
    7.5860   -4.7960    1.1780 C   0  0  0  0  0  0  0  0  0  0  0  0
    8.3180   -4.9300   -0.0160 C   0  0  0  0  0  3  0  0  0  0  0  0
    9.4030   -4.0950   -0.2920 C   0  0  0  0  0  3  0  0  0  0  0  0
    9.7730   -3.1090    0.6190 C   0  0  0  0  0  3  0  0  0  0  0  0
    9.0570   -2.9610    1.8070 C   0  0  0  0  0  3  0  0  0  0  0  0
    7.9680   -3.7960    2.0880 C   0  0  0  0  0  0  0  0  0  0  0  0
    7.1500   -3.5480    3.5920 Cl  0  0  0  0  0  0  0  0  0  0  0  0
    4.9050  -10.0460    2.6130 N   0  0  0  0  0  4  0  0  0  0  0  0
    4.6990   -9.9160    3.9670 C   0  0  0  0  0  0  0  0  0  0  0  0
    5.6590   -9.9460    4.7440 O   0  0  0  0  0  0  0  0  0  0  0  0
    5.8620  -10.3060    2.3820 H   0  0  0  0  0  0  0  0  0  0  0  0
    3.3450   -9.8290    4.5530 C   0  0  0  0  0  0  0  0  0  0  0  0
    2.6730  -11.0150    4.8670 C   0  0  0  0  0  3  0  0  0  0  0  0
    1.3640  -10.9690    5.3480 C   0  0  0  0  0  3  0  0  0  0  0  0
    0.7200   -9.7400    5.4970 C   0  0  0  0  0  3  0  0  0  0  0  0
    1.3800   -8.5580    5.1600 C   0  0  0  0  0  3  0  0  0  0  0  0
    2.6880   -8.6010    4.6730 C   0  0  0  0  0  3  0  0  0  0  0  0
    1.9060  -10.7860    1.4390 O   0  0  0  0  0  1  0  0  0  0  0  0
    3.0590  -10.8110    0.9140 C   0  0  0  0  0  0  0  0  0  0  0  0
    3.5290  -11.5750    0.0240 O   0  0  0  0  0  0  0  0  0  0  0  0
  1 15  2  3  0  0  0
  2  3  1  0  0  0  0
  2  1  1  0  0  0  0
  3  4  2  0  0  0  0
  4  5  1  0  0  0  0
  6  5  2  0  0  0  0
  7  3  1  0  0  0  0
  7  6  1  0  0  0  0
  8  6  1  0  0  0  0
  8 13  1  0  0  0  0
  9  8  2  0  0  0  0
 10  9  1  0  0  0  0
 10 11  2  0  0  0  0
 11 12  1  0  0  0  0
 12 13  2  0  0  0  0
 13 14  1  0  0  0  0
 15 16  1  0  0  0  0
 16 19  1  0  0  0  0
 16 17  2  0  0  0  0
 18 15  1  0  0  0  0
 19 24  2  0  0  0  0
 19 20  1  0  0  0  0
 20 21  2  0  0  0  0
 21 22  1  0  0  0  0
 23 22  2  0  0  0  0
 24 23  1  0  0  0  0
 26 25  1  0  0  0  0
 26  1  1  0  0  0  0
 27 26  2  0  0  0  0
M  END
>  <minimizedAffinity>
-6.01083374

$$$$
