
 OpenBabel09132204463D

 36 40  0  0  0  0  0  0  0  0999 V2000
   12.8350   -4.1010  -13.3900 C   0  0  0  0  0  0  0  0  0  0  0  0
   13.5130   -3.0070  -13.7840 N   0  0  0  0  0  0  0  0  0  0  0  0
   12.8030   -2.0570  -14.3940 C   0  0  0  0  0  3  0  0  0  0  0  0
   11.4920   -2.0910  -14.6280 N   0  0  0  0  0  0  0  0  0  0  0  0
   10.8350   -3.1670  -14.2080 C   0  0  0  0  0  0  0  0  0  0  0  0
    9.5170   -3.1910  -14.4080 N   0  0  0  0  0  0  0  0  0  0  0  0
    8.7960   -4.2560  -13.9560 C   0  0  0  0  0  0  0  0  0  0  0  0
    9.4190   -5.3360  -13.3170 C   0  0  0  0  0  0  0  0  0  0  0  0
   10.7610   -5.3290  -13.1120 N   0  0  0  0  0  0  0  0  0  0  0  0
   11.4570   -4.2430  -13.5630 C   0  0  0  0  0  0  0  0  0  0  0  0
    7.3440   -4.1230  -14.1760 C   0  0  0  0  0  0  0  0  0  0  0  0
    6.4940   -5.2450  -14.2330 C   0  0  0  0  0  3  0  0  0  0  0  0
    5.1200   -5.0960  -14.4410 C   0  0  0  0  0  3  0  0  0  0  0  0
    4.5810   -3.8240  -14.5820 C   0  0  0  0  0  0  0  0  0  0  0  0
    3.2650   -3.6830  -14.7810 F   0  0  0  0  0  0  0  0  0  0  0  0
    5.3880   -2.6970  -14.5120 C   0  0  0  0  0  3  0  0  0  0  0  0
    6.7620   -2.8470  -14.3050 C   0  0  0  0  0  3  0  0  0  0  0  0
    8.7430   -6.5410  -12.8110 C   0  0  0  0  0  0  0  0  0  0  0  0
    7.9190   -6.4620  -11.6720 C   0  0  0  0  0  3  0  0  0  0  0  0
    7.2590   -7.5890  -11.1770 C   0  0  0  0  0  3  0  0  0  0  0  0
    7.4260   -8.8110  -11.8140 C   0  0  0  0  0  0  0  0  0  0  0  0
    6.7930   -9.8930  -11.3430 F   0  0  0  0  0  0  0  0  0  0  0  0
    8.2460   -8.9270  -12.9290 C   0  0  0  0  0  3  0  0  0  0  0  0
    8.9060   -7.7990  -13.4220 C   0  0  0  0  0  3  0  0  0  0  0  0
   13.5460   -5.1470  -12.8040 N   0  0  0  0  0  0  0  0  0  0  0  0
   14.4370   -4.8890  -12.3860 H   0  0  0  0  0  0  0  0  0  0  0  0
   13.3590   -6.5240  -13.2260 C   0  0  0  0  0  2  0  0  0  0  0  0
   13.7590   -7.5000  -12.1100 C   0  0  0  0  0  2  0  0  0  0  0  0
   12.0240   -7.1680  -10.2740 C   0  0  0  0  0  0  0  0  0  0  0  0
   10.9590   -7.6550   -9.5080 C   0  0  0  0  0  3  0  0  0  0  0  0
   10.4230   -8.9190   -9.7630 C   0  0  0  0  0  3  0  0  0  0  0  0
   10.9450   -9.7060  -10.7850 C   0  0  0  0  0  3  0  0  0  0  0  0
   12.0110   -9.2330  -11.5480 C   0  0  0  0  0  3  0  0  0  0  0  0
   12.5640   -7.9660  -11.3000 C   0  0  0  0  0  0  0  0  0  0  0  0
   11.8290   -4.9440   -9.4580 C   0  0  0  0  0  1  0  0  0  0  0  0
   12.6220   -5.9500  -10.0770 O   0  0  0  0  0  0  0  0  0  0  0  0
  1 25  1  0  0  0  0
  2  1  1  0  0  0  0
  3  2  2  0  0  0  0
  4  3  1  0  0  0  0
  4  5  2  0  0  0  0
  5 10  1  0  0  0  0
  6  5  1  0  0  0  0
  6  7  2  0  0  0  0
  7  8  1  0  0  0  0
  8  9  2  0  0  0  0
  8 18  1  0  0  0  0
 10  1  2  0  0  0  0
 10  9  1  0  0  0  0
 11  7  1  0  0  0  0
 12 11  1  0  0  0  0
 13 12  2  0  0  0  0
 14 16  2  0  0  0  0
 14 13  1  0  0  0  0
 15 14  1  0  0  0  0
 16 17  1  0  0  0  0
 17 11  2  0  0  0  0
 18 19  1  0  0  0  0
 19 20  2  0  0  0  0
 21 22  1  0  0  0  0
 21 20  1  0  0  0  0
 23 21  2  0  0  0  0
 24 23  1  0  0  0  0
 24 18  2  0  0  0  0
 25 26  1  0  0  0  0
 27 25  1  0  0  0  0
 27 28  1  0  0  0  0
 28 34  1  0  0  0  0
 29 36  1  0  0  0  0
 29 30  1  0  0  0  0
 31 30  2  0  0  0  0
 32 31  1  0  0  0  0
 33 34  1  0  0  0  0
 33 32  2  0  0  0  0
 34 29  2  0  0  0  0
 36 35  1  0  0  0  0
M  END
>  <minimizedAffinity>
-5.58206654

$$$$
