
 OpenBabel09132204463D

 36 40  0  0  0  0  0  0  0  0999 V2000
    5.7640   -6.1570    1.3440 C   0  0  0  0  0  0  0  0  0  0  0  0
    5.2410   -7.0300    0.4640 N   0  0  0  0  0  0  0  0  0  0  0  0
    5.8010   -7.0640   -0.7450 C   0  0  0  0  0  3  0  0  0  0  0  0
    6.8350   -6.3260   -1.1470 N   0  0  0  0  0  0  0  0  0  0  0  0
    7.3560   -5.4880   -0.2570 C   0  0  0  0  0  0  0  0  0  0  0  0
    8.4140   -4.7730   -0.6420 N   0  0  0  0  0  0  0  0  0  0  0  0
    9.0080   -3.9320    0.2520 C   0  0  0  0  0  0  0  0  0  0  0  0
    8.5070   -3.7830    1.5510 C   0  0  0  0  0  0  0  0  0  0  0  0
    7.4270   -4.4990    1.9560 N   0  0  0  0  0  0  0  0  0  0  0  0
    6.8610   -5.3450    1.0450 C   0  0  0  0  0  0  0  0  0  0  0  0
   10.2080   -3.2570   -0.2780 C   0  0  0  0  0  0  0  0  0  0  0  0
   11.4860   -3.8450   -0.2020 C   0  0  0  0  0  3  0  0  0  0  0  0
   12.6090   -3.1880   -0.7120 C   0  0  0  0  0  3  0  0  0  0  0  0
   12.4640   -1.9450   -1.3140 C   0  0  0  0  0  0  0  0  0  0  0  0
   13.5420   -1.3180   -1.8020 F   0  0  0  0  0  0  0  0  0  0  0  0
   11.2160   -1.3480   -1.4220 C   0  0  0  0  0  3  0  0  0  0  0  0
   10.0930   -2.0040   -0.9100 C   0  0  0  0  0  3  0  0  0  0  0  0
    9.0540   -2.8900    2.5850 C   0  0  0  0  0  0  0  0  0  0  0  0
    8.9980   -1.4930    2.4150 C   0  0  0  0  0  3  0  0  0  0  0  0
    9.5030   -0.6250    3.3860 C   0  0  0  0  0  3  0  0  0  0  0  0
   10.0780   -1.1490    4.5350 C   0  0  0  0  0  0  0  0  0  0  0  0
   10.5610   -0.3180    5.4680 F   0  0  0  0  0  0  0  0  0  0  0  0
   10.1660   -2.5210    4.7260 C   0  0  0  0  0  3  0  0  0  0  0  0
    9.6620   -3.3890    3.7530 C   0  0  0  0  0  3  0  0  0  0  0  0
    5.1720   -6.0430    2.6000 N   0  0  0  0  0  0  0  0  0  0  0  0
    5.5740   -5.3360    3.2100 H   0  0  0  0  0  0  0  0  0  0  0  0
    4.4640   -7.1550    3.2110 C   0  0  0  0  0  2  0  0  0  0  0  0
    4.0780   -6.8300    4.6610 C   0  0  0  0  0  2  0  0  0  0  0  0
    2.0030   -5.4010    5.0410 C   0  0  0  0  0  0  0  0  0  0  0  0
    1.3860   -4.1460    5.0890 C   0  0  0  0  0  3  0  0  0  0  0  0
    2.1330   -2.9820    4.8970 C   0  0  0  0  0  3  0  0  0  0  0  0
    3.5010   -3.0620    4.6540 C   0  0  0  0  0  3  0  0  0  0  0  0
    4.1240   -4.3070    4.5960 C   0  0  0  0  0  3  0  0  0  0  0  0
    3.3840   -5.4870    4.7840 C   0  0  0  0  0  0  0  0  0  0  0  0
   -0.0770   -6.5270    5.2640 C   0  0  0  0  0  1  0  0  0  0  0  0
    1.3420   -6.5920    5.1980 O   0  0  0  0  0  0  0  0  0  0  0  0
  1 25  1  0  0  0  0
  2  1  1  0  0  0  0
  3  2  2  0  0  0  0
  4  3  1  0  0  0  0
  4  5  2  0  0  0  0
  5 10  1  0  0  0  0
  6  5  1  0  0  0  0
  6  7  2  0  0  0  0
  7  8  1  0  0  0  0
  8  9  2  0  0  0  0
  8 18  1  0  0  0  0
 10  1  2  0  0  0  0
 10  9  1  0  0  0  0
 11 12  1  0  0  0  0
 11  7  1  0  0  0  0
 13 12  2  0  0  0  0
 14 13  1  0  0  0  0
 15 14  1  0  0  0  0
 16 14  2  0  0  0  0
 16 17  1  0  0  0  0
 17 11  2  0  0  0  0
 18 24  1  0  0  0  0
 19 18  2  0  0  0  0
 19 20  1  0  0  0  0
 20 21  2  0  0  0  0
 21 23  1  0  0  0  0
 21 22  1  0  0  0  0
 24 23  2  0  0  0  0
 25 26  1  0  0  0  0
 25 27  1  0  0  0  0
 27 28  1  0  0  0  0
 28 34  1  0  0  0  0
 29 30  1  0  0  0  0
 29 36  1  0  0  0  0
 31 30  2  0  0  0  0
 32 31  1  0  0  0  0
 33 32  2  0  0  0  0
 33 34  1  0  0  0  0
 34 29  2  0  0  0  0
 36 35  1  0  0  0  0
M  END
>  <minimizedAffinity>
-6.88464165

$$$$
