
 OpenBabel09132204463D

 36 40  0  0  0  0  0  0  0  0999 V2000
    9.2530   -2.9450    1.4470 C   0  0  0  0  0  0  0  0  0  0  0  0
   10.3270   -3.0400    0.6430 N   0  0  0  0  0  0  0  0  0  0  0  0
   10.4110   -4.1390   -0.1080 C   0  0  0  0  0  3  0  0  0  0  0  0
    9.5230   -5.1330   -0.1400 N   0  0  0  0  0  0  0  0  0  0  0  0
    8.4560   -5.0080    0.6420 C   0  0  0  0  0  0  0  0  0  0  0  0
    7.5460   -5.9820    0.5870 N   0  0  0  0  0  0  0  0  0  0  0  0
    6.4140   -5.8760    1.3400 C   0  0  0  0  0  0  0  0  0  0  0  0
    6.2080   -4.7830    2.1900 C   0  0  0  0  0  0  0  0  0  0  0  0
    7.1280   -3.7870    2.2610 N   0  0  0  0  0  0  0  0  0  0  0  0
    8.2450   -3.9110    1.4860 C   0  0  0  0  0  0  0  0  0  0  0  0
    5.4600   -6.9810    1.1320 C   0  0  0  0  0  0  0  0  0  0  0  0
    5.4530   -8.1230    1.9570 C   0  0  0  0  0  3  0  0  0  0  0  0
    4.5390   -9.1590    1.7420 C   0  0  0  0  0  3  0  0  0  0  0  0
    3.6170   -9.0570    0.7090 C   0  0  0  0  0  0  0  0  0  0  0  0
    2.7420  -10.0500    0.5050 F   0  0  0  0  0  0  0  0  0  0  0  0
    3.5850   -7.9370   -0.1100 C   0  0  0  0  0  3  0  0  0  0  0  0
    4.5000   -6.9020    0.1040 C   0  0  0  0  0  3  0  0  0  0  0  0
    5.0380   -4.5790    3.0600 C   0  0  0  0  0  0  0  0  0  0  0  0
    4.3510   -3.3500    3.0430 C   0  0  0  0  0  3  0  0  0  0  0  0
    3.2330   -3.1340    3.8520 C   0  0  0  0  0  3  0  0  0  0  0  0
    2.7960   -4.1480    4.6930 C   0  0  0  0  0  0  0  0  0  0  0  0
    1.7220   -3.9460    5.4680 F   0  0  0  0  0  0  0  0  0  0  0  0
    3.4610   -5.3660    4.7470 C   0  0  0  0  0  3  0  0  0  0  0  0
    4.5800   -5.5790    3.9390 C   0  0  0  0  0  3  0  0  0  0  0  0
    9.1540   -1.8420    2.2940 N   0  0  0  0  0  0  0  0  0  0  0  0
    8.3590   -1.8500    2.9290 H   0  0  0  0  0  0  0  0  0  0  0  0
    9.7430   -0.5610    1.9480 C   0  0  0  0  0  2  0  0  0  0  0  0
    9.1620   -0.0250    0.6320 C   0  0  0  0  0  2  0  0  0  0  0  0
   10.7800    1.7500   -0.2200 C   0  0  0  0  0  0  0  0  0  0  0  0
   11.7310    2.1760   -1.1520 C   0  0  0  0  0  3  0  0  0  0  0  0
   12.1590    1.3210   -2.1710 C   0  0  0  0  0  3  0  0  0  0  0  0
   11.6380    0.0340   -2.2660 C   0  0  0  0  0  3  0  0  0  0  0  0
   10.6840   -0.3980   -1.3470 C   0  0  0  0  0  3  0  0  0  0  0  0
   10.2410    0.4530   -0.3200 C   0  0  0  0  0  0  0  0  0  0  0  0
   11.0300    2.5280    2.0110 C   0  0  0  0  0  1  0  0  0  0  0  0
   10.2910    2.5300    0.7960 O   0  0  0  0  0  0  0  0  0  0  0  0
  1 10  2  0  0  0  0
  1 25  1  0  0  0  0
  2  1  1  0  0  0  0
  3  2  2  0  0  0  0
  4  3  1  0  0  0  0
  4  5  2  0  0  0  0
  5 10  1  0  0  0  0
  6  5  1  0  0  0  0
  6  7  2  0  0  0  0
  7  8  1  0  0  0  0
  8  9  2  0  0  0  0
  8 18  1  0  0  0  0
 10  9  1  0  0  0  0
 11  7  1  0  0  0  0
 11 12  1  0  0  0  0
 13 12  2  0  0  0  0
 14 13  1  0  0  0  0
 15 14  1  0  0  0  0
 16 17  1  0  0  0  0
 16 14  2  0  0  0  0
 17 11  2  0  0  0  0
 18 24  1  0  0  0  0
 19 18  2  0  0  0  0
 19 20  1  0  0  0  0
 20 21  2  0  0  0  0
 21 23  1  0  0  0  0
 21 22  1  0  0  0  0
 24 23  2  0  0  0  0
 25 26  1  0  0  0  0
 27 25  1  0  0  0  0
 28 27  1  0  0  0  0
 29 36  1  0  0  0  0
 30 29  2  0  0  0  0
 31 30  1  0  0  0  0
 32 31  2  0  0  0  0
 32 33  1  0  0  0  0
 33 34  2  0  0  0  0
 34 29  1  0  0  0  0
 34 28  1  0  0  0  0
 36 35  1  0  0  0  0
M  END
>  <minimizedAffinity>
-6.40509844

$$$$
