
 OpenBabel09132204463D

 36 40  0  0  0  0  0  0  0  0999 V2000
    6.0280   -6.0000    1.5370 C   0  0  0  0  0  0  0  0  0  0  0  0
    5.5320   -6.9350    0.7060 N   0  0  0  0  0  0  0  0  0  0  0  0
    6.0960   -7.0180   -0.5000 C   0  0  0  0  0  3  0  0  0  0  0  0
    7.1080   -6.2720   -0.9410 N   0  0  0  0  0  0  0  0  0  0  0  0
    7.6020   -5.3720   -0.0970 C   0  0  0  0  0  0  0  0  0  0  0  0
    8.6390   -4.6470   -0.5200 N   0  0  0  0  0  0  0  0  0  0  0  0
    9.2050   -3.7410    0.3280 C   0  0  0  0  0  0  0  0  0  0  0  0
    8.6970   -3.5370    1.6160 C   0  0  0  0  0  0  0  0  0  0  0  0
    7.6390   -4.2630    2.0590 N   0  0  0  0  0  0  0  0  0  0  0  0
    7.1000   -5.1730    1.1950 C   0  0  0  0  0  0  0  0  0  0  0  0
   10.3850   -3.0610   -0.2370 C   0  0  0  0  0  0  0  0  0  0  0  0
   11.6650   -3.6490   -0.2140 C   0  0  0  0  0  3  0  0  0  0  0  0
   12.7700   -2.9860   -0.7560 C   0  0  0  0  0  3  0  0  0  0  0  0
   12.6040   -1.7370   -1.3390 C   0  0  0  0  0  0  0  0  0  0  0  0
   13.6630   -1.1040   -1.8580 F   0  0  0  0  0  0  0  0  0  0  0  0
   11.3530   -1.1390   -1.3950 C   0  0  0  0  0  3  0  0  0  0  0  0
   10.2490   -1.8000   -0.8510 C   0  0  0  0  0  3  0  0  0  0  0  0
    9.2150   -2.5740    2.6010 C   0  0  0  0  0  0  0  0  0  0  0  0
    9.7880   -3.0320    3.8040 C   0  0  0  0  0  3  0  0  0  0  0  0
   10.2950   -2.1390    4.7500 C   0  0  0  0  0  3  0  0  0  0  0  0
   10.2250   -0.7750    4.5060 C   0  0  0  0  0  0  0  0  0  0  0  0
   10.7120    0.0840    5.4110 F   0  0  0  0  0  0  0  0  0  0  0  0
    9.6510   -0.2880    3.3380 C   0  0  0  0  0  3  0  0  0  0  0  0
    9.1430   -1.1830    2.3930 C   0  0  0  0  0  3  0  0  0  0  0  0
    5.4290   -5.8360    2.7840 N   0  0  0  0  0  0  0  0  0  0  0  0
    5.5800   -4.9320    3.2260 H   0  0  0  0  0  0  0  0  0  0  0  0
    5.1200   -6.9720    3.6350 C   0  0  0  0  0  2  0  0  0  0  0  0
    3.6230   -7.0140    3.9750 C   0  0  0  0  0  2  0  0  0  0  0  0
    1.8120   -8.7980    3.8050 C   0  0  0  0  0  0  0  0  0  0  0  0
    1.2010   -9.8440    3.1060 C   0  0  0  0  0  3  0  0  0  0  0  0
    1.6500  -10.2020    1.8330 C   0  0  0  0  0  3  0  0  0  0  0  0
    2.7110   -9.5180    1.2490 C   0  0  0  0  0  3  0  0  0  0  0  0
    3.3320   -8.4790    1.9400 C   0  0  0  0  0  3  0  0  0  0  0  0
    2.8940   -8.1120    3.2240 C   0  0  0  0  0  0  0  0  0  0  0  0
    0.1050   -8.6570    5.4530 C   0  0  0  0  0  1  0  0  0  0  0  0
    1.4490   -8.3970    5.0650 O   0  0  0  0  0  0  0  0  0  0  0  0
  1 25  1  0  0  0  0
  2  1  1  0  0  0  0
  3  2  2  0  0  0  0
  4  3  1  0  0  0  0
  4  5  2  0  0  0  0
  5 10  1  0  0  0  0
  6  5  1  0  0  0  0
  6  7  2  0  0  0  0
  7  8  1  0  0  0  0
  8  9  2  0  0  0  0
  8 18  1  0  0  0  0
 10  1  2  0  0  0  0
 10  9  1  0  0  0  0
 11 12  1  0  0  0  0
 11  7  1  0  0  0  0
 13 12  2  0  0  0  0
 14 13  1  0  0  0  0
 15 14  1  0  0  0  0
 16 14  2  0  0  0  0
 16 17  1  0  0  0  0
 17 11  2  0  0  0  0
 18 19  1  0  0  0  0
 19 20  2  0  0  0  0
 21 20  1  0  0  0  0
 21 22  1  0  0  0  0
 23 21  2  0  0  0  0
 24 18  2  0  0  0  0
 24 23  1  0  0  0  0
 25 26  1  0  0  0  0
 25 27  1  0  0  0  0
 27 28  1  0  0  0  0
 29 36  1  0  0  0  0
 30 29  2  0  0  0  0
 31 30  1  0  0  0  0
 32 31  2  0  0  0  0
 32 33  1  0  0  0  0
 33 34  2  0  0  0  0
 34 29  1  0  0  0  0
 34 28  1  0  0  0  0
 36 35  1  0  0  0  0
M  END
>  <minimizedAffinity>
-6.13587332

$$$$
