
 OpenBabel09132204463D

 36 40  0  0  0  0  0  0  0  0999 V2000
    9.6510   -2.8020    3.2820 C   0  0  0  0  0  0  0  0  0  0  0  0
   10.2060   -2.0070    4.2140 N   0  0  0  0  0  0  0  0  0  0  0  0
    9.4390   -1.6900    5.2580 C   0  0  0  0  0  3  0  0  0  0  0  0
    8.1890   -2.1040    5.4620 N   0  0  0  0  0  0  0  0  0  0  0  0
    7.6670   -2.9100    4.5440 C   0  0  0  0  0  0  0  0  0  0  0  0
    6.4290   -3.3560    4.7600 N   0  0  0  0  0  0  0  0  0  0  0  0
    5.8680   -4.2190    3.8660 C   0  0  0  0  0  0  0  0  0  0  0  0
    6.5560   -4.6170    2.7120 C   0  0  0  0  0  0  0  0  0  0  0  0
    7.8150   -4.1670    2.4750 N   0  0  0  0  0  0  0  0  0  0  0  0
    8.3570   -3.3150    3.3950 C   0  0  0  0  0  0  0  0  0  0  0  0
    4.5280   -4.6910    4.2600 C   0  0  0  0  0  0  0  0  0  0  0  0
    3.4300   -3.8150    4.3590 C   0  0  0  0  0  3  0  0  0  0  0  0
    2.1680   -4.2840    4.7340 C   0  0  0  0  0  3  0  0  0  0  0  0
    1.9890   -5.6350    5.0010 C   0  0  0  0  0  0  0  0  0  0  0  0
    0.7790   -6.0820    5.3590 F   0  0  0  0  0  0  0  0  0  0  0  0
    3.0460   -6.5280    4.8940 C   0  0  0  0  0  3  0  0  0  0  0  0
    4.3080   -6.0580    4.5210 C   0  0  0  0  0  3  0  0  0  0  0  0
    6.0400   -5.5240    1.6740 C   0  0  0  0  0  0  0  0  0  0  0  0
    6.6640   -6.7650    1.4470 C   0  0  0  0  0  3  0  0  0  0  0  0
    6.1890   -7.6470    0.4740 C   0  0  0  0  0  3  0  0  0  0  0  0
    5.0860   -7.2890   -0.2890 C   0  0  0  0  0  0  0  0  0  0  0  0
    4.6250   -8.1340   -1.2210 F   0  0  0  0  0  0  0  0  0  0  0  0
    4.4570   -6.0650   -0.1030 C   0  0  0  0  0  3  0  0  0  0  0  0
    4.9350   -5.1830    0.8700 C   0  0  0  0  0  3  0  0  0  0  0  0
   10.3940   -3.1080    2.1430 N   0  0  0  0  0  0  0  0  0  0  0  0
   11.2210   -3.6790    2.3020 H   0  0  0  0  0  0  0  0  0  0  0  0
   10.3600   -2.2640    0.9620 C   0  0  0  0  0  2  0  0  0  0  0  0
   10.4020   -3.1090   -0.3200 C   0  0  0  0  0  2  0  0  0  0  0  0
   11.5850   -1.5180   -1.9210 C   0  0  0  0  0  0  0  0  0  0  0  0
   12.6490   -1.2340   -2.7830 C   0  0  0  0  0  3  0  0  0  0  0  0
   13.6980   -2.1420   -2.9370 C   0  0  0  0  0  3  0  0  0  0  0  0
   13.6920   -3.3420   -2.2320 C   0  0  0  0  0  3  0  0  0  0  0  0
   12.6330   -3.6380   -1.3760 C   0  0  0  0  0  3  0  0  0  0  0  0
   11.5680   -2.7350   -1.2150 C   0  0  0  0  0  0  0  0  0  0  0  0
   10.6970    0.6840   -2.0330 C   0  0  0  0  0  1  0  0  0  0  0  0
   10.5070   -0.6930   -1.7280 O   0  0  0  0  0  0  0  0  0  0  0  0
  1 10  2  0  0  0  0
  1  2  1  0  0  0  0
  2  3  2  0  0  0  0
  3  4  1  0  0  0  0
  5  6  1  0  0  0  0
  5  4  2  0  0  0  0
  7 11  1  0  0  0  0
  7  6  2  0  0  0  0
  8  7  1  0  0  0  0
  9  8  2  0  0  0  0
  9 10  1  0  0  0  0
 10  5  1  0  0  0  0
 11 12  2  0  0  0  0
 11 17  1  0  0  0  0
 12 13  1  0  0  0  0
 13 14  2  0  0  0  0
 14 15  1  0  0  0  0
 16 14  1  0  0  0  0
 17 16  2  0  0  0  0
 18  8  1  0  0  0  0
 19 18  1  0  0  0  0
 20 19  2  0  0  0  0
 21 23  2  0  0  0  0
 21 20  1  0  0  0  0
 22 21  1  0  0  0  0
 23 24  1  0  0  0  0
 24 18  2  0  0  0  0
 25 26  1  0  0  0  0
 25  1  1  0  0  0  0
 27 25  1  0  0  0  0
 28 27  1  0  0  0  0
 29 36  1  0  0  0  0
 29 34  1  0  0  0  0
 30 29  2  0  0  0  0
 31 30  1  0  0  0  0
 31 32  2  0  0  0  0
 32 33  1  0  0  0  0
 33 34  2  0  0  0  0
 34 28  1  0  0  0  0
 35 36  1  0  0  0  0
M  END
>  <minimizedAffinity>
-7.59931087

$$$$
