
 OpenBabel09132204463D

 36 40  0  0  0  0  0  0  0  0999 V2000
    9.2900   -2.9660    1.5880 C   0  0  0  0  0  0  0  0  0  0  0  0
   10.3820   -3.1030    0.8140 N   0  0  0  0  0  0  0  0  0  0  0  0
   10.4780   -4.2350    0.1160 C   0  0  0  0  0  3  0  0  0  0  0  0
    9.5850   -5.2250    0.1080 N   0  0  0  0  0  0  0  0  0  0  0  0
    8.5010   -5.0600    0.8570 C   0  0  0  0  0  0  0  0  0  0  0  0
    7.5870   -6.0320    0.8250 N   0  0  0  0  0  0  0  0  0  0  0  0
    6.4380   -5.8870    1.5450 C   0  0  0  0  0  0  0  0  0  0  0  0
    6.2190   -4.7550    2.3400 C   0  0  0  0  0  0  0  0  0  0  0  0
    7.1420   -3.7610    2.3880 N   0  0  0  0  0  0  0  0  0  0  0  0
    8.2760   -3.9260    1.6460 C   0  0  0  0  0  0  0  0  0  0  0  0
    5.4830   -6.9960    1.3640 C   0  0  0  0  0  0  0  0  0  0  0  0
    5.5320   -8.1570    2.1610 C   0  0  0  0  0  3  0  0  0  0  0  0
    4.6160   -9.1960    1.9720 C   0  0  0  0  0  3  0  0  0  0  0  0
    3.6360   -9.0790    0.9960 C   0  0  0  0  0  0  0  0  0  0  0  0
    2.7600  -10.0750    0.8180 F   0  0  0  0  0  0  0  0  0  0  0  0
    3.5490   -7.9400    0.2070 C   0  0  0  0  0  3  0  0  0  0  0  0
    4.4660   -6.9020    0.3950 C   0  0  0  0  0  3  0  0  0  0  0  0
    5.0290   -4.5080    3.1720 C   0  0  0  0  0  0  0  0  0  0  0  0
    4.3120   -3.3030    3.0370 C   0  0  0  0  0  3  0  0  0  0  0  0
    3.1750   -3.0470    3.8070 C   0  0  0  0  0  3  0  0  0  0  0  0
    2.7510   -3.9940    4.7290 C   0  0  0  0  0  0  0  0  0  0  0  0
    1.6600   -3.7530    5.4680 F   0  0  0  0  0  0  0  0  0  0  0  0
    3.4450   -5.1850    4.9000 C   0  0  0  0  0  3  0  0  0  0  0  0
    4.5830   -5.4380    4.1290 C   0  0  0  0  0  3  0  0  0  0  0  0
    9.1770   -1.8270    2.3820 N   0  0  0  0  0  0  0  0  0  0  0  0
    8.5260   -1.8990    3.1590 H   0  0  0  0  0  0  0  0  0  0  0  0
    9.4820   -0.5040    1.8630 C   0  0  0  0  0  2  0  0  0  0  0  0
    9.2940   -0.4540    0.3400 C   0  0  0  0  0  2  0  0  0  0  0  0
   11.0770   -0.0390   -1.4330 C   0  0  0  0  0  0  0  0  0  0  0  0
   12.0620    0.7790   -1.9940 C   0  0  0  0  0  3  0  0  0  0  0  0
   12.2950    2.0590   -1.4850 C   0  0  0  0  0  3  0  0  0  0  0  0
   11.5470    2.5290   -0.4100 C   0  0  0  0  0  3  0  0  0  0  0  0
   10.5690    1.7180    0.1630 C   0  0  0  0  0  3  0  0  0  0  0  0
   10.3270    0.4270   -0.3370 C   0  0  0  0  0  0  0  0  0  0  0  0
   11.8950   -2.0720   -2.3540 C   0  0  0  0  0  1  0  0  0  0  0  0
   10.7990   -1.3130   -1.8570 O   0  0  0  0  0  0  0  0  0  0  0  0
  1 10  2  0  0  0  0
  1 25  1  0  0  0  0
  2  1  1  0  0  0  0
  3  2  2  0  0  0  0
  4  3  1  0  0  0  0
  4  5  2  0  0  0  0
  5 10  1  0  0  0  0
  6  5  1  0  0  0  0
  6  7  2  0  0  0  0
  7  8  1  0  0  0  0
  8  9  2  0  0  0  0
  8 18  1  0  0  0  0
 10  9  1  0  0  0  0
 11  7  1  0  0  0  0
 11 12  1  0  0  0  0
 13 12  2  0  0  0  0
 14 13  1  0  0  0  0
 15 14  1  0  0  0  0
 16 17  1  0  0  0  0
 16 14  2  0  0  0  0
 17 11  2  0  0  0  0
 18 24  1  0  0  0  0
 19 18  2  0  0  0  0
 19 20  1  0  0  0  0
 20 21  2  0  0  0  0
 21 23  1  0  0  0  0
 21 22  1  0  0  0  0
 24 23  2  0  0  0  0
 25 26  1  0  0  0  0
 27 25  1  0  0  0  0
 28 27  1  0  0  0  0
 29 34  1  0  0  0  0
 30 31  1  0  0  0  0
 30 29  2  0  0  0  0
 31 32  2  0  0  0  0
 32 33  1  0  0  0  0
 34 33  2  0  0  0  0
 34 28  1  0  0  0  0
 35 36  1  0  0  0  0
 36 29  1  0  0  0  0
M  END
>  <minimizedAffinity>
-6.50433683

$$$$
