
 OpenBabel09132204463D

 36 40  0  0  0  0  0  0  0  0999 V2000
    5.6830   -6.0390    1.3950 C   0  0  0  0  0  0  0  0  0  0  0  0
    5.1490   -6.9170    0.5260 N   0  0  0  0  0  0  0  0  0  0  0  0
    5.7220   -6.9890   -0.6750 C   0  0  0  0  0  3  0  0  0  0  0  0
    6.7790   -6.2840   -1.0790 N   0  0  0  0  0  0  0  0  0  0  0  0
    7.3100   -5.4420   -0.1990 C   0  0  0  0  0  0  0  0  0  0  0  0
    8.3890   -4.7600   -0.5850 N   0  0  0  0  0  0  0  0  0  0  0  0
    8.9930   -3.9160    0.2990 C   0  0  0  0  0  0  0  0  0  0  0  0
    8.4800   -3.7290    1.5890 C   0  0  0  0  0  0  0  0  0  0  0  0
    7.3790   -4.4100    1.9940 N   0  0  0  0  0  0  0  0  0  0  0  0
    6.8030   -5.2600    1.0930 C   0  0  0  0  0  0  0  0  0  0  0  0
   10.2150   -3.2820   -0.2300 C   0  0  0  0  0  0  0  0  0  0  0  0
   10.1830   -2.0370   -0.8880 C   0  0  0  0  0  3  0  0  0  0  0  0
   11.3540   -1.4540   -1.3800 C   0  0  0  0  0  3  0  0  0  0  0  0
   12.5690   -2.1040   -1.2080 C   0  0  0  0  0  0  0  0  0  0  0  0
   13.6900   -1.5430   -1.6800 F   0  0  0  0  0  0  0  0  0  0  0  0
   12.6380   -3.3220   -0.5470 C   0  0  0  0  0  3  0  0  0  0  0  0
   11.4660   -3.9060   -0.0570 C   0  0  0  0  0  3  0  0  0  0  0  0
    9.0380   -2.8290    2.6120 C   0  0  0  0  0  0  0  0  0  0  0  0
    9.0580   -1.4380    2.3940 C   0  0  0  0  0  3  0  0  0  0  0  0
    9.5730   -0.5620    3.3520 C   0  0  0  0  0  3  0  0  0  0  0  0
   10.0830   -1.0740    4.5370 C   0  0  0  0  0  0  0  0  0  0  0  0
   10.5760   -0.2370    5.4600 F   0  0  0  0  0  0  0  0  0  0  0  0
   10.0950   -2.4420    4.7770 C   0  0  0  0  0  3  0  0  0  0  0  0
    9.5800   -3.3170    3.8160 C   0  0  0  0  0  3  0  0  0  0  0  0
    5.0790   -5.8850    2.6410 N   0  0  0  0  0  0  0  0  0  0  0  0
    5.4650   -5.1490    3.2260 H   0  0  0  0  0  0  0  0  0  0  0  0
    4.3830   -6.9830    3.2900 C   0  0  0  0  0  2  0  0  0  0  0  0
    3.9920   -6.6130    4.7270 C   0  0  0  0  0  2  0  0  0  0  0  0
    1.9050   -7.9530    5.3160 C   0  0  0  0  0  0  0  0  0  0  0  0
    0.5170   -8.0320    5.4680 C   0  0  0  0  0  3  0  0  0  0  0  0
   -0.2810   -6.9000    5.2840 C   0  0  0  0  0  3  0  0  0  0  0  0
    0.3010   -5.6820    4.9470 C   0  0  0  0  0  3  0  0  0  0  0  0
    1.6830   -5.5950    4.7860 C   0  0  0  0  0  3  0  0  0  0  0  0
    2.4980   -6.7260    4.9630 C   0  0  0  0  0  0  0  0  0  0  0  0
    2.6120  -10.0770    4.5200 C   0  0  0  0  0  1  0  0  0  0  0  0
    2.7580   -9.0170    5.4570 O   0  0  0  0  0  0  0  0  0  0  0  0
  1 25  1  0  0  0  0
  2  1  1  0  0  0  0
  3  2  2  0  0  0  0
  4  3  1  0  0  0  0
  4  5  2  0  0  0  0
  5 10  1  0  0  0  0
  6  5  1  0  0  0  0
  6  7  2  0  0  0  0
  7  8  1  0  0  0  0
  8  9  2  0  0  0  0
  8 18  1  0  0  0  0
 10  1  2  0  0  0  0
 10  9  1  0  0  0  0
 11 17  1  0  0  0  0
 11  7  1  0  0  0  0
 12 11  2  0  0  0  0
 13 14  2  0  0  0  0
 13 12  1  0  0  0  0
 14 16  1  0  0  0  0
 15 14  1  0  0  0  0
 16 17  2  0  0  0  0
 18 24  1  0  0  0  0
 19 18  2  0  0  0  0
 19 20  1  0  0  0  0
 20 21  2  0  0  0  0
 21 23  1  0  0  0  0
 21 22  1  0  0  0  0
 24 23  2  0  0  0  0
 25 26  1  0  0  0  0
 25 27  1  0  0  0  0
 27 28  1  0  0  0  0
 28 34  1  0  0  0  0
 29 36  1  0  0  0  0
 29 30  1  0  0  0  0
 31 30  2  0  0  0  0
 32 31  1  0  0  0  0
 33 32  2  0  0  0  0
 33 34  1  0  0  0  0
 34 29  2  0  0  0  0
 35 36  1  0  0  0  0
M  END
>  <minimizedAffinity>
-6.79336309

$$$$
