
 OpenBabel09132204463D

 36 40  0  0  0  0  0  0  0  0999 V2000
    6.3660   -5.5870    1.8090 C   0  0  0  0  0  0  0  0  0  0  0  0
    5.3220   -5.9020    2.5960 N   0  0  0  0  0  0  0  0  0  0  0  0
    5.1250   -5.1250    3.6620 C   0  0  0  0  0  3  0  0  0  0  0  0
    5.8580   -4.0650    4.0010 N   0  0  0  0  0  0  0  0  0  0  0  0
    6.8690   -3.7530    3.1960 C   0  0  0  0  0  0  0  0  0  0  0  0
    7.5850   -2.6720    3.5100 N   0  0  0  0  0  0  0  0  0  0  0  0
    8.6050   -2.2900    2.6910 C   0  0  0  0  0  0  0  0  0  0  0  0
    8.9340   -3.0300    1.5480 C   0  0  0  0  0  0  0  0  0  0  0  0
    8.2190   -4.1360    1.2190 N   0  0  0  0  0  0  0  0  0  0  0  0
    7.1930   -4.4880    2.0490 C   0  0  0  0  0  0  0  0  0  0  0  0
    9.2650   -1.0400    3.1120 C   0  0  0  0  0  0  0  0  0  0  0  0
    9.2780    0.1070    2.2950 C   0  0  0  0  0  3  0  0  0  0  0  0
    9.9090    1.2810    2.7160 C   0  0  0  0  0  3  0  0  0  0  0  0
   10.5210    1.3230    3.9610 C   0  0  0  0  0  0  0  0  0  0  0  0
   11.1250    2.4500    4.3620 F   0  0  0  0  0  0  0  0  0  0  0  0
   10.5100    0.2170    4.7980 C   0  0  0  0  0  3  0  0  0  0  0  0
    9.8800   -0.9580    4.3770 C   0  0  0  0  0  3  0  0  0  0  0  0
   10.0250   -2.7210    0.6100 C   0  0  0  0  0  0  0  0  0  0  0  0
    9.8280   -1.7750   -0.4150 C   0  0  0  0  0  3  0  0  0  0  0  0
   10.8500   -1.4580   -1.3130 C   0  0  0  0  0  3  0  0  0  0  0  0
   12.0780   -2.0930   -1.1980 C   0  0  0  0  0  0  0  0  0  0  0  0
   13.0610   -1.7900   -2.0560 F   0  0  0  0  0  0  0  0  0  0  0  0
   12.3000   -3.0440   -0.2110 C   0  0  0  0  0  3  0  0  0  0  0  0
   11.2760   -3.3610    0.6860 C   0  0  0  0  0  3  0  0  0  0  0  0
    6.6470   -6.4080    0.7180 N   0  0  0  0  0  0  0  0  0  0  0  0
    7.6230   -6.4420    0.4370 H   0  0  0  0  0  0  0  0  0  0  0  0
    5.6350   -6.7260   -0.2750 C   0  0  0  0  0  2  0  0  0  0  0  0
    5.3880   -8.2390   -0.3430 C   0  0  0  0  0  2  0  0  0  0  0  0
    4.6310   -9.1300    1.9220 C   0  0  0  0  0  0  0  0  0  0  0  0
    3.6160   -9.5920    2.7660 C   0  0  0  0  0  3  0  0  0  0  0  0
    2.2880   -9.6060    2.3360 C   0  0  0  0  0  3  0  0  0  0  0  0
    1.9630   -9.1590    1.0580 C   0  0  0  0  0  3  0  0  0  0  0  0
    2.9680   -8.7040    0.2060 C   0  0  0  0  0  3  0  0  0  0  0  0
    4.3090   -8.6890    0.6250 C   0  0  0  0  0  0  0  0  0  0  0  0
    6.2800   -9.3760    3.6160 C   0  0  0  0  0  1  0  0  0  0  0  0
    5.9600   -9.1020    2.2570 O   0  0  0  0  0  0  0  0  0  0  0  0
  1 10  2  0  0  0  0
  1  2  1  0  0  0  0
  2  3  2  0  0  0  0
  3  4  1  0  0  0  0
  5  6  1  0  0  0  0
  5  4  2  0  0  0  0
  7 11  1  0  0  0  0
  7  6  2  0  0  0  0
  8  7  1  0  0  0  0
  9  8  2  0  0  0  0
  9 10  1  0  0  0  0
 10  5  1  0  0  0  0
 11 17  1  0  0  0  0
 12 13  1  0  0  0  0
 12 11  2  0  0  0  0
 13 14  2  0  0  0  0
 14 15  1  0  0  0  0
 14 16  1  0  0  0  0
 17 16  2  0  0  0  0
 18 24  1  0  0  0  0
 18  8  1  0  0  0  0
 19 18  2  0  0  0  0
 20 21  2  0  0  0  0
 20 19  1  0  0  0  0
 21 23  1  0  0  0  0
 22 21  1  0  0  0  0
 23 24  2  0  0  0  0
 25  1  1  0  0  0  0
 26 25  1  0  0  0  0
 27 25  1  0  0  0  0
 28 27  1  0  0  0  0
 28 34  1  0  0  0  0
 29 36  1  0  0  0  0
 29 30  1  0  0  0  0
 31 30  2  0  0  0  0
 32 31  1  0  0  0  0
 33 34  1  0  0  0  0
 33 32  2  0  0  0  0
 34 29  2  0  0  0  0
 36 35  1  0  0  0  0
M  END
>  <minimizedAffinity>
-5.55450296

$$$$
