
 OpenBabel09132200393D

 36 40  0  0  0  0  0  0  0  0999 V2000
    5.8160   -6.0930    1.5860 C   0  0  0  0  0  0  0  0  0  0  0  0
    5.2870   -7.0110    0.7560 N   0  0  0  0  0  0  0  0  0  0  0  0
    5.8340   -7.1030   -0.4560 C   0  0  0  0  0  3  0  0  0  0  0  0
    6.8610   -6.3820   -0.9050 N   0  0  0  0  0  0  0  0  0  0  0  0
    7.3890   -5.5000   -0.0630 C   0  0  0  0  0  0  0  0  0  0  0  0
    8.4390   -4.8010   -0.4940 N   0  0  0  0  0  0  0  0  0  0  0  0
    9.0400   -3.9140    0.3500 C   0  0  0  0  0  0  0  0  0  0  0  0
    8.5520   -3.7030    1.6460 C   0  0  0  0  0  0  0  0  0  0  0  0
    7.4800   -4.4020    2.0970 N   0  0  0  0  0  0  0  0  0  0  0  0
    6.9070   -5.2940    1.2350 C   0  0  0  0  0  0  0  0  0  0  0  0
   10.2310   -3.2640   -0.2260 C   0  0  0  0  0  0  0  0  0  0  0  0
   10.1510   -2.0330   -0.9060 C   0  0  0  0  0  3  0  0  0  0  0  0
   11.2940   -1.4330   -1.4430 C   0  0  0  0  0  3  0  0  0  0  0  0
   12.5280   -2.0510   -1.2940 C   0  0  0  0  0  0  0  0  0  0  0  0
   13.6210   -1.4750   -1.8090 F   0  0  0  0  0  0  0  0  0  0  0  0
   12.6440   -3.2550   -0.6120 C   0  0  0  0  0  3  0  0  0  0  0  0
   11.5010   -3.8550   -0.0770 C   0  0  0  0  0  3  0  0  0  0  0  0
    9.1070   -2.7590    2.6290 C   0  0  0  0  0  0  0  0  0  0  0  0
    9.0250   -1.3710    2.4000 C   0  0  0  0  0  3  0  0  0  0  0  0
    9.5370   -0.4540    3.3210 C   0  0  0  0  0  3  0  0  0  0  0  0
   10.1450   -0.9200    4.4790 C   0  0  0  0  0  0  0  0  0  0  0  0
   10.6340   -0.0430    5.3650 F   0  0  0  0  0  0  0  0  0  0  0  0
   10.2580   -2.2810    4.7270 C   0  0  0  0  0  3  0  0  0  0  0  0
    9.7470   -3.1970    3.8040 C   0  0  0  0  0  3  0  0  0  0  0  0
    5.2370   -5.9190    2.8410 N   0  0  0  0  0  0  0  0  0  0  0  0
    5.8540   -5.5490    3.5590 H   0  0  0  0  0  0  0  0  0  0  0  0
    4.0830   -6.6960    3.2610 C   0  0  0  0  0  2  0  0  0  0  0  0
    3.6840   -6.3520    4.7020 C   0  0  0  0  0  2  0  0  0  0  0  0
    4.3120   -3.9480    5.2650 C   0  0  0  0  0  0  0  0  0  0  0  0
    3.9450   -2.6130    5.4650 C   0  0  0  0  0  3  0  0  0  0  0  0
    2.6260   -2.2020    5.2600 C   0  0  0  0  0  3  0  0  0  0  0  0
    1.6640   -3.1220    4.8550 C   0  0  0  0  0  3  0  0  0  0  0  0
    2.0170   -4.4560    4.6610 C   0  0  0  0  0  3  0  0  0  0  0  0
    3.3400   -4.8840    4.8680 C   0  0  0  0  0  0  0  0  0  0  0  0
    6.6350   -3.4870    5.4680 C   0  0  0  0  0  1  0  0  0  0  0  0
    5.5770   -4.4380    5.4640 O   0  0  0  0  0  0  0  0  0  0  0  0
  1 25  1  0  0  0  0
  2  1  1  0  0  0  0
  3  2  2  0  0  0  0
  4  3  1  0  0  0  0
  4  5  2  0  0  0  0
  5 10  1  0  0  0  0
  6  5  1  0  0  0  0
  6  7  2  0  0  0  0
  7  8  1  0  0  0  0
  8  9  2  0  0  0  0
  8 18  1  0  0  0  0
 10  1  2  0  0  0  0
 10  9  1  0  0  0  0
 11 17  1  0  0  0  0
 11  7  1  0  0  0  0
 12 11  2  0  0  0  0
 13 14  2  0  0  0  0
 13 12  1  0  0  0  0
 14 16  1  0  0  0  0
 15 14  1  0  0  0  0
 16 17  2  0  0  0  0
 18 24  1  0  0  0  0
 19 18  2  0  0  0  0
 19 20  1  0  0  0  0
 20 21  2  0  0  0  0
 21 23  1  0  0  0  0
 21 22  1  0  0  0  0
 24 23  2  0  0  0  0
 25 27  1  0  0  0  0
 25 26  1  0  0  0  0
 27 28  1  0  0  0  0
 28 34  1  0  0  0  0
 29 36  1  0  0  0  0
 29 30  1  0  0  0  0
 31 30  2  0  0  0  0
 32 31  1  0  0  0  0
 33 32  2  0  0  0  0
 33 34  1  0  0  0  0
 34 29  2  0  0  0  0
 36 35  1  0  0  0  0
M  END
>  <minimizedAffinity>
-8.40054131

$$$$

 OpenBabel09132200393D

 36 40  0  0  0  0  0  0  0  0999 V2000
    5.8240   -5.9210    1.6550 C   0  0  0  0  0  0  0  0  0  0  0  0
    5.2780   -6.8280    0.8250 N   0  0  0  0  0  0  0  0  0  0  0  0
    5.8370   -6.9440   -0.3800 C   0  0  0  0  0  3  0  0  0  0  0  0
    6.8900   -6.2560   -0.8210 N   0  0  0  0  0  0  0  0  0  0  0  0
    7.4320   -5.3840    0.0220 C   0  0  0  0  0  0  0  0  0  0  0  0
    8.5080   -4.7180   -0.4010 N   0  0  0  0  0  0  0  0  0  0  0  0
    9.1240   -3.8440    0.4450 C   0  0  0  0  0  0  0  0  0  0  0  0
    8.6270   -3.6110    1.7330 C   0  0  0  0  0  0  0  0  0  0  0  0
    7.5300   -4.2760    2.1760 N   0  0  0  0  0  0  0  0  0  0  0  0
    6.9410   -5.1560    1.3130 C   0  0  0  0  0  0  0  0  0  0  0  0
   10.3400   -3.2320   -0.1200 C   0  0  0  0  0  0  0  0  0  0  0  0
   11.6110   -3.8150    0.0430 C   0  0  0  0  0  3  0  0  0  0  0  0
   12.7520   -3.2170   -0.5020 C   0  0  0  0  0  3  0  0  0  0  0  0
   12.6290   -2.0390   -1.2270 C   0  0  0  0  0  0  0  0  0  0  0  0
   13.7220   -1.4690   -1.7490 F   0  0  0  0  0  0  0  0  0  0  0  0
   11.3880   -1.4490   -1.4220 C   0  0  0  0  0  3  0  0  0  0  0  0
   10.2490   -2.0460   -0.8750 C   0  0  0  0  0  3  0  0  0  0  0  0
    9.1980   -2.6770    2.7170 C   0  0  0  0  0  0  0  0  0  0  0  0
    9.1330   -1.2870    2.4930 C   0  0  0  0  0  3  0  0  0  0  0  0
    9.6590   -0.3800    3.4150 C   0  0  0  0  0  3  0  0  0  0  0  0
   10.2650   -0.8560    4.5690 C   0  0  0  0  0  0  0  0  0  0  0  0
   10.7690    0.0110    5.4560 F   0  0  0  0  0  0  0  0  0  0  0  0
   10.3620   -2.2200    4.8130 C   0  0  0  0  0  3  0  0  0  0  0  0
    9.8360   -3.1270    3.8890 C   0  0  0  0  0  3  0  0  0  0  0  0
    5.2350   -5.7230    2.9030 N   0  0  0  0  0  0  0  0  0  0  0  0
    5.8810   -5.5390    3.6660 H   0  0  0  0  0  0  0  0  0  0  0  0
    3.9310   -6.2750    3.2250 C   0  0  0  0  0  2  0  0  0  0  0  0
    4.0680   -7.6360    3.9220 C   0  0  0  0  0  2  0  0  0  0  0  0
    2.2470   -9.3310    3.3680 C   0  0  0  0  0  0  0  0  0  0  0  0
    0.9760   -9.8660    3.6020 C   0  0  0  0  0  3  0  0  0  0  0  0
    0.1830   -9.3790    4.6440 C   0  0  0  0  0  3  0  0  0  0  0  0
    0.6530   -8.3550    5.4590 C   0  0  0  0  0  3  0  0  0  0  0  0
    1.9150   -7.8090    5.2300 C   0  0  0  0  0  3  0  0  0  0  0  0
    2.7220   -8.2860    4.1820 C   0  0  0  0  0  0  0  0  0  0  0  0
    2.6030   -9.5520    1.0290 C   0  0  0  0  0  1  0  0  0  0  0  0
    3.0800   -9.7350    2.3570 O   0  0  0  0  0  0  0  0  0  0  0  0
  1 25  1  0  0  0  0
  2  1  1  0  0  0  0
  3  2  2  0  0  0  0
  4  3  1  0  0  0  0
  4  5  2  0  0  0  0
  5 10  1  0  0  0  0
  6  5  1  0  0  0  0
  6  7  2  0  0  0  0
  7  8  1  0  0  0  0
  8  9  2  0  0  0  0
  8 18  1  0  0  0  0
 10  1  2  0  0  0  0
 10  9  1  0  0  0  0
 11 12  1  0  0  0  0
 11  7  1  0  0  0  0
 13 12  2  0  0  0  0
 14 13  1  0  0  0  0
 15 14  1  0  0  0  0
 16 14  2  0  0  0  0
 16 17  1  0  0  0  0
 17 11  2  0  0  0  0
 18 24  1  0  0  0  0
 19 18  2  0  0  0  0
 19 20  1  0  0  0  0
 20 21  2  0  0  0  0
 21 23  1  0  0  0  0
 21 22  1  0  0  0  0
 24 23  2  0  0  0  0
 25 27  1  0  0  0  0
 25 26  1  0  0  0  0
 27 28  1  0  0  0  0
 28 34  1  0  0  0  0
 29 30  2  0  0  0  0
 29 34  1  0  0  0  0
 30 31  1  0  0  0  0
 31 32  2  0  0  0  0
 33 32  1  0  0  0  0
 34 33  2  0  0  0  0
 35 36  1  0  0  0  0
 36 29  1  0  0  0  0
M  END
>  <minimizedAffinity>
-7.69841528

$$$$

 OpenBabel09132200393D

 36 40  0  0  0  0  0  0  0  0999 V2000
    9.6510   -2.8020    3.2820 C   0  0  0  0  0  0  0  0  0  0  0  0
   10.2060   -2.0070    4.2140 N   0  0  0  0  0  0  0  0  0  0  0  0
    9.4390   -1.6900    5.2580 C   0  0  0  0  0  3  0  0  0  0  0  0
    8.1890   -2.1040    5.4620 N   0  0  0  0  0  0  0  0  0  0  0  0
    7.6670   -2.9100    4.5440 C   0  0  0  0  0  0  0  0  0  0  0  0
    6.4290   -3.3560    4.7600 N   0  0  0  0  0  0  0  0  0  0  0  0
    5.8680   -4.2190    3.8660 C   0  0  0  0  0  0  0  0  0  0  0  0
    6.5560   -4.6170    2.7120 C   0  0  0  0  0  0  0  0  0  0  0  0
    7.8150   -4.1670    2.4750 N   0  0  0  0  0  0  0  0  0  0  0  0
    8.3570   -3.3150    3.3950 C   0  0  0  0  0  0  0  0  0  0  0  0
    4.5280   -4.6910    4.2600 C   0  0  0  0  0  0  0  0  0  0  0  0
    3.4300   -3.8150    4.3590 C   0  0  0  0  0  3  0  0  0  0  0  0
    2.1680   -4.2840    4.7340 C   0  0  0  0  0  3  0  0  0  0  0  0
    1.9890   -5.6350    5.0010 C   0  0  0  0  0  0  0  0  0  0  0  0
    0.7790   -6.0820    5.3590 F   0  0  0  0  0  0  0  0  0  0  0  0
    3.0460   -6.5280    4.8940 C   0  0  0  0  0  3  0  0  0  0  0  0
    4.3080   -6.0580    4.5210 C   0  0  0  0  0  3  0  0  0  0  0  0
    6.0400   -5.5240    1.6740 C   0  0  0  0  0  0  0  0  0  0  0  0
    6.6640   -6.7650    1.4470 C   0  0  0  0  0  3  0  0  0  0  0  0
    6.1890   -7.6470    0.4740 C   0  0  0  0  0  3  0  0  0  0  0  0
    5.0860   -7.2890   -0.2890 C   0  0  0  0  0  0  0  0  0  0  0  0
    4.6250   -8.1340   -1.2210 F   0  0  0  0  0  0  0  0  0  0  0  0
    4.4570   -6.0650   -0.1030 C   0  0  0  0  0  3  0  0  0  0  0  0
    4.9350   -5.1830    0.8700 C   0  0  0  0  0  3  0  0  0  0  0  0
   10.3940   -3.1080    2.1430 N   0  0  0  0  0  0  0  0  0  0  0  0
   11.2210   -3.6790    2.3020 H   0  0  0  0  0  0  0  0  0  0  0  0
   10.3600   -2.2640    0.9620 C   0  0  0  0  0  2  0  0  0  0  0  0
   10.4020   -3.1090   -0.3200 C   0  0  0  0  0  2  0  0  0  0  0  0
   11.5850   -1.5180   -1.9210 C   0  0  0  0  0  0  0  0  0  0  0  0
   12.6490   -1.2340   -2.7830 C   0  0  0  0  0  3  0  0  0  0  0  0
   13.6980   -2.1420   -2.9370 C   0  0  0  0  0  3  0  0  0  0  0  0
   13.6920   -3.3420   -2.2320 C   0  0  0  0  0  3  0  0  0  0  0  0
   12.6330   -3.6380   -1.3760 C   0  0  0  0  0  3  0  0  0  0  0  0
   11.5680   -2.7350   -1.2150 C   0  0  0  0  0  0  0  0  0  0  0  0
   10.6970    0.6840   -2.0330 C   0  0  0  0  0  1  0  0  0  0  0  0
   10.5070   -0.6930   -1.7280 O   0  0  0  0  0  0  0  0  0  0  0  0
  1 10  2  0  0  0  0
  1  2  1  0  0  0  0
  2  3  2  0  0  0  0
  3  4  1  0  0  0  0
  5  6  1  0  0  0  0
  5  4  2  0  0  0  0
  7 11  1  0  0  0  0
  7  6  2  0  0  0  0
  8  7  1  0  0  0  0
  9  8  2  0  0  0  0
  9 10  1  0  0  0  0
 10  5  1  0  0  0  0
 11 12  2  0  0  0  0
 11 17  1  0  0  0  0
 12 13  1  0  0  0  0
 13 14  2  0  0  0  0
 14 15  1  0  0  0  0
 16 14  1  0  0  0  0
 17 16  2  0  0  0  0
 18  8  1  0  0  0  0
 19 18  1  0  0  0  0
 20 19  2  0  0  0  0
 21 23  2  0  0  0  0
 21 20  1  0  0  0  0
 22 21  1  0  0  0  0
 23 24  1  0  0  0  0
 24 18  2  0  0  0  0
 25 26  1  0  0  0  0
 25  1  1  0  0  0  0
 27 25  1  0  0  0  0
 28 27  1  0  0  0  0
 29 36  1  0  0  0  0
 29 34  1  0  0  0  0
 30 29  2  0  0  0  0
 31 30  1  0  0  0  0
 31 32  2  0  0  0  0
 32 33  1  0  0  0  0
 33 34  2  0  0  0  0
 34 28  1  0  0  0  0
 35 36  1  0  0  0  0
M  END
>  <minimizedAffinity>
-7.59931087

$$$$

 OpenBabel09132200393D

 36 40  0  0  0  0  0  0  0  0999 V2000
    5.7640   -6.1570    1.3440 C   0  0  0  0  0  0  0  0  0  0  0  0
    5.2410   -7.0300    0.4640 N   0  0  0  0  0  0  0  0  0  0  0  0
    5.8010   -7.0640   -0.7450 C   0  0  0  0  0  3  0  0  0  0  0  0
    6.8350   -6.3260   -1.1470 N   0  0  0  0  0  0  0  0  0  0  0  0
    7.3560   -5.4880   -0.2570 C   0  0  0  0  0  0  0  0  0  0  0  0
    8.4140   -4.7730   -0.6420 N   0  0  0  0  0  0  0  0  0  0  0  0
    9.0080   -3.9320    0.2520 C   0  0  0  0  0  0  0  0  0  0  0  0
    8.5070   -3.7830    1.5510 C   0  0  0  0  0  0  0  0  0  0  0  0
    7.4270   -4.4990    1.9560 N   0  0  0  0  0  0  0  0  0  0  0  0
    6.8610   -5.3450    1.0450 C   0  0  0  0  0  0  0  0  0  0  0  0
   10.2080   -3.2570   -0.2780 C   0  0  0  0  0  0  0  0  0  0  0  0
   11.4860   -3.8450   -0.2020 C   0  0  0  0  0  3  0  0  0  0  0  0
   12.6090   -3.1880   -0.7120 C   0  0  0  0  0  3  0  0  0  0  0  0
   12.4640   -1.9450   -1.3140 C   0  0  0  0  0  0  0  0  0  0  0  0
   13.5420   -1.3180   -1.8020 F   0  0  0  0  0  0  0  0  0  0  0  0
   11.2160   -1.3480   -1.4220 C   0  0  0  0  0  3  0  0  0  0  0  0
   10.0930   -2.0040   -0.9100 C   0  0  0  0  0  3  0  0  0  0  0  0
    9.0540   -2.8900    2.5850 C   0  0  0  0  0  0  0  0  0  0  0  0
    8.9980   -1.4930    2.4150 C   0  0  0  0  0  3  0  0  0  0  0  0
    9.5030   -0.6250    3.3860 C   0  0  0  0  0  3  0  0  0  0  0  0
   10.0780   -1.1490    4.5350 C   0  0  0  0  0  0  0  0  0  0  0  0
   10.5610   -0.3180    5.4680 F   0  0  0  0  0  0  0  0  0  0  0  0
   10.1660   -2.5210    4.7260 C   0  0  0  0  0  3  0  0  0  0  0  0
    9.6620   -3.3890    3.7530 C   0  0  0  0  0  3  0  0  0  0  0  0
    5.1720   -6.0430    2.6000 N   0  0  0  0  0  0  0  0  0  0  0  0
    5.5740   -5.3360    3.2100 H   0  0  0  0  0  0  0  0  0  0  0  0
    4.4640   -7.1550    3.2110 C   0  0  0  0  0  2  0  0  0  0  0  0
    4.0780   -6.8300    4.6610 C   0  0  0  0  0  2  0  0  0  0  0  0
    2.0030   -5.4010    5.0410 C   0  0  0  0  0  0  0  0  0  0  0  0
    1.3860   -4.1460    5.0890 C   0  0  0  0  0  3  0  0  0  0  0  0
    2.1330   -2.9820    4.8970 C   0  0  0  0  0  3  0  0  0  0  0  0
    3.5010   -3.0620    4.6540 C   0  0  0  0  0  3  0  0  0  0  0  0
    4.1240   -4.3070    4.5960 C   0  0  0  0  0  3  0  0  0  0  0  0
    3.3840   -5.4870    4.7840 C   0  0  0  0  0  0  0  0  0  0  0  0
   -0.0770   -6.5270    5.2640 C   0  0  0  0  0  1  0  0  0  0  0  0
    1.3420   -6.5920    5.1980 O   0  0  0  0  0  0  0  0  0  0  0  0
  1 25  1  0  0  0  0
  2  1  1  0  0  0  0
  3  2  2  0  0  0  0
  4  3  1  0  0  0  0
  4  5  2  0  0  0  0
  5 10  1  0  0  0  0
  6  5  1  0  0  0  0
  6  7  2  0  0  0  0
  7  8  1  0  0  0  0
  8  9  2  0  0  0  0
  8 18  1  0  0  0  0
 10  1  2  0  0  0  0
 10  9  1  0  0  0  0
 11 12  1  0  0  0  0
 11  7  1  0  0  0  0
 13 12  2  0  0  0  0
 14 13  1  0  0  0  0
 15 14  1  0  0  0  0
 16 14  2  0  0  0  0
 16 17  1  0  0  0  0
 17 11  2  0  0  0  0
 18 24  1  0  0  0  0
 19 18  2  0  0  0  0
 19 20  1  0  0  0  0
 20 21  2  0  0  0  0
 21 23  1  0  0  0  0
 21 22  1  0  0  0  0
 24 23  2  0  0  0  0
 25 26  1  0  0  0  0
 25 27  1  0  0  0  0
 27 28  1  0  0  0  0
 28 34  1  0  0  0  0
 29 30  1  0  0  0  0
 29 36  1  0  0  0  0
 31 30  2  0  0  0  0
 32 31  1  0  0  0  0
 33 32  2  0  0  0  0
 33 34  1  0  0  0  0
 34 29  2  0  0  0  0
 36 35  1  0  0  0  0
M  END
>  <minimizedAffinity>
-6.88464165

$$$$

 OpenBabel09132200393D

 36 40  0  0  0  0  0  0  0  0999 V2000
    5.6830   -6.0390    1.3950 C   0  0  0  0  0  0  0  0  0  0  0  0
    5.1490   -6.9170    0.5260 N   0  0  0  0  0  0  0  0  0  0  0  0
    5.7220   -6.9890   -0.6750 C   0  0  0  0  0  3  0  0  0  0  0  0
    6.7790   -6.2840   -1.0790 N   0  0  0  0  0  0  0  0  0  0  0  0
    7.3100   -5.4420   -0.1990 C   0  0  0  0  0  0  0  0  0  0  0  0
    8.3890   -4.7600   -0.5850 N   0  0  0  0  0  0  0  0  0  0  0  0
    8.9930   -3.9160    0.2990 C   0  0  0  0  0  0  0  0  0  0  0  0
    8.4800   -3.7290    1.5890 C   0  0  0  0  0  0  0  0  0  0  0  0
    7.3790   -4.4100    1.9940 N   0  0  0  0  0  0  0  0  0  0  0  0
    6.8030   -5.2600    1.0930 C   0  0  0  0  0  0  0  0  0  0  0  0
   10.2150   -3.2820   -0.2300 C   0  0  0  0  0  0  0  0  0  0  0  0
   10.1830   -2.0370   -0.8880 C   0  0  0  0  0  3  0  0  0  0  0  0
   11.3540   -1.4540   -1.3800 C   0  0  0  0  0  3  0  0  0  0  0  0
   12.5690   -2.1040   -1.2080 C   0  0  0  0  0  0  0  0  0  0  0  0
   13.6900   -1.5430   -1.6800 F   0  0  0  0  0  0  0  0  0  0  0  0
   12.6380   -3.3220   -0.5470 C   0  0  0  0  0  3  0  0  0  0  0  0
   11.4660   -3.9060   -0.0570 C   0  0  0  0  0  3  0  0  0  0  0  0
    9.0380   -2.8290    2.6120 C   0  0  0  0  0  0  0  0  0  0  0  0
    9.0580   -1.4380    2.3940 C   0  0  0  0  0  3  0  0  0  0  0  0
    9.5730   -0.5620    3.3520 C   0  0  0  0  0  3  0  0  0  0  0  0
   10.0830   -1.0740    4.5370 C   0  0  0  0  0  0  0  0  0  0  0  0
   10.5760   -0.2370    5.4600 F   0  0  0  0  0  0  0  0  0  0  0  0
   10.0950   -2.4420    4.7770 C   0  0  0  0  0  3  0  0  0  0  0  0
    9.5800   -3.3170    3.8160 C   0  0  0  0  0  3  0  0  0  0  0  0
    5.0790   -5.8850    2.6410 N   0  0  0  0  0  0  0  0  0  0  0  0
    5.4650   -5.1490    3.2260 H   0  0  0  0  0  0  0  0  0  0  0  0
    4.3830   -6.9830    3.2900 C   0  0  0  0  0  2  0  0  0  0  0  0
    3.9920   -6.6130    4.7270 C   0  0  0  0  0  2  0  0  0  0  0  0
    1.9050   -7.9530    5.3160 C   0  0  0  0  0  0  0  0  0  0  0  0
    0.5170   -8.0320    5.4680 C   0  0  0  0  0  3  0  0  0  0  0  0
   -0.2810   -6.9000    5.2840 C   0  0  0  0  0  3  0  0  0  0  0  0
    0.3010   -5.6820    4.9470 C   0  0  0  0  0  3  0  0  0  0  0  0
    1.6830   -5.5950    4.7860 C   0  0  0  0  0  3  0  0  0  0  0  0
    2.4980   -6.7260    4.9630 C   0  0  0  0  0  0  0  0  0  0  0  0
    2.6120  -10.0770    4.5200 C   0  0  0  0  0  1  0  0  0  0  0  0
    2.7580   -9.0170    5.4570 O   0  0  0  0  0  0  0  0  0  0  0  0
  1 25  1  0  0  0  0
  2  1  1  0  0  0  0
  3  2  2  0  0  0  0
  4  3  1  0  0  0  0
  4  5  2  0  0  0  0
  5 10  1  0  0  0  0
  6  5  1  0  0  0  0
  6  7  2  0  0  0  0
  7  8  1  0  0  0  0
  8  9  2  0  0  0  0
  8 18  1  0  0  0  0
 10  1  2  0  0  0  0
 10  9  1  0  0  0  0
 11 17  1  0  0  0  0
 11  7  1  0  0  0  0
 12 11  2  0  0  0  0
 13 14  2  0  0  0  0
 13 12  1  0  0  0  0
 14 16  1  0  0  0  0
 15 14  1  0  0  0  0
 16 17  2  0  0  0  0
 18 24  1  0  0  0  0
 19 18  2  0  0  0  0
 19 20  1  0  0  0  0
 20 21  2  0  0  0  0
 21 23  1  0  0  0  0
 21 22  1  0  0  0  0
 24 23  2  0  0  0  0
 25 26  1  0  0  0  0
 25 27  1  0  0  0  0
 27 28  1  0  0  0  0
 28 34  1  0  0  0  0
 29 36  1  0  0  0  0
 29 30  1  0  0  0  0
 31 30  2  0  0  0  0
 32 31  1  0  0  0  0
 33 32  2  0  0  0  0
 33 34  1  0  0  0  0
 34 29  2  0  0  0  0
 35 36  1  0  0  0  0
M  END
>  <minimizedAffinity>
-6.79336309

$$$$

 OpenBabel09132200393D

 36 40  0  0  0  0  0  0  0  0999 V2000
    9.2900   -2.9660    1.5880 C   0  0  0  0  0  0  0  0  0  0  0  0
   10.3820   -3.1030    0.8140 N   0  0  0  0  0  0  0  0  0  0  0  0
   10.4780   -4.2350    0.1160 C   0  0  0  0  0  3  0  0  0  0  0  0
    9.5850   -5.2250    0.1080 N   0  0  0  0  0  0  0  0  0  0  0  0
    8.5010   -5.0600    0.8570 C   0  0  0  0  0  0  0  0  0  0  0  0
    7.5870   -6.0320    0.8250 N   0  0  0  0  0  0  0  0  0  0  0  0
    6.4380   -5.8870    1.5450 C   0  0  0  0  0  0  0  0  0  0  0  0
    6.2190   -4.7550    2.3400 C   0  0  0  0  0  0  0  0  0  0  0  0
    7.1420   -3.7610    2.3880 N   0  0  0  0  0  0  0  0  0  0  0  0
    8.2760   -3.9260    1.6460 C   0  0  0  0  0  0  0  0  0  0  0  0
    5.4830   -6.9960    1.3640 C   0  0  0  0  0  0  0  0  0  0  0  0
    5.5320   -8.1570    2.1610 C   0  0  0  0  0  3  0  0  0  0  0  0
    4.6160   -9.1960    1.9720 C   0  0  0  0  0  3  0  0  0  0  0  0
    3.6360   -9.0790    0.9960 C   0  0  0  0  0  0  0  0  0  0  0  0
    2.7600  -10.0750    0.8180 F   0  0  0  0  0  0  0  0  0  0  0  0
    3.5490   -7.9400    0.2070 C   0  0  0  0  0  3  0  0  0  0  0  0
    4.4660   -6.9020    0.3950 C   0  0  0  0  0  3  0  0  0  0  0  0
    5.0290   -4.5080    3.1720 C   0  0  0  0  0  0  0  0  0  0  0  0
    4.3120   -3.3030    3.0370 C   0  0  0  0  0  3  0  0  0  0  0  0
    3.1750   -3.0470    3.8070 C   0  0  0  0  0  3  0  0  0  0  0  0
    2.7510   -3.9940    4.7290 C   0  0  0  0  0  0  0  0  0  0  0  0
    1.6600   -3.7530    5.4680 F   0  0  0  0  0  0  0  0  0  0  0  0
    3.4450   -5.1850    4.9000 C   0  0  0  0  0  3  0  0  0  0  0  0
    4.5830   -5.4380    4.1290 C   0  0  0  0  0  3  0  0  0  0  0  0
    9.1770   -1.8270    2.3820 N   0  0  0  0  0  0  0  0  0  0  0  0
    8.5260   -1.8990    3.1590 H   0  0  0  0  0  0  0  0  0  0  0  0
    9.4820   -0.5040    1.8630 C   0  0  0  0  0  2  0  0  0  0  0  0
    9.2940   -0.4540    0.3400 C   0  0  0  0  0  2  0  0  0  0  0  0
   11.0770   -0.0390   -1.4330 C   0  0  0  0  0  0  0  0  0  0  0  0
   12.0620    0.7790   -1.9940 C   0  0  0  0  0  3  0  0  0  0  0  0
   12.2950    2.0590   -1.4850 C   0  0  0  0  0  3  0  0  0  0  0  0
   11.5470    2.5290   -0.4100 C   0  0  0  0  0  3  0  0  0  0  0  0
   10.5690    1.7180    0.1630 C   0  0  0  0  0  3  0  0  0  0  0  0
   10.3270    0.4270   -0.3370 C   0  0  0  0  0  0  0  0  0  0  0  0
   11.8950   -2.0720   -2.3540 C   0  0  0  0  0  1  0  0  0  0  0  0
   10.7990   -1.3130   -1.8570 O   0  0  0  0  0  0  0  0  0  0  0  0
  1 10  2  0  0  0  0
  1 25  1  0  0  0  0
  2  1  1  0  0  0  0
  3  2  2  0  0  0  0
  4  3  1  0  0  0  0
  4  5  2  0  0  0  0
  5 10  1  0  0  0  0
  6  5  1  0  0  0  0
  6  7  2  0  0  0  0
  7  8  1  0  0  0  0
  8  9  2  0  0  0  0
  8 18  1  0  0  0  0
 10  9  1  0  0  0  0
 11  7  1  0  0  0  0
 11 12  1  0  0  0  0
 13 12  2  0  0  0  0
 14 13  1  0  0  0  0
 15 14  1  0  0  0  0
 16 17  1  0  0  0  0
 16 14  2  0  0  0  0
 17 11  2  0  0  0  0
 18 24  1  0  0  0  0
 19 18  2  0  0  0  0
 19 20  1  0  0  0  0
 20 21  2  0  0  0  0
 21 23  1  0  0  0  0
 21 22  1  0  0  0  0
 24 23  2  0  0  0  0
 25 26  1  0  0  0  0
 27 25  1  0  0  0  0
 28 27  1  0  0  0  0
 29 34  1  0  0  0  0
 30 31  1  0  0  0  0
 30 29  2  0  0  0  0
 31 32  2  0  0  0  0
 32 33  1  0  0  0  0
 34 33  2  0  0  0  0
 34 28  1  0  0  0  0
 35 36  1  0  0  0  0
 36 29  1  0  0  0  0
M  END
>  <minimizedAffinity>
-6.50433683

$$$$

 OpenBabel09132200393D

 36 40  0  0  0  0  0  0  0  0999 V2000
    9.2530   -2.9450    1.4470 C   0  0  0  0  0  0  0  0  0  0  0  0
   10.3270   -3.0400    0.6430 N   0  0  0  0  0  0  0  0  0  0  0  0
   10.4110   -4.1390   -0.1080 C   0  0  0  0  0  3  0  0  0  0  0  0
    9.5230   -5.1330   -0.1400 N   0  0  0  0  0  0  0  0  0  0  0  0
    8.4560   -5.0080    0.6420 C   0  0  0  0  0  0  0  0  0  0  0  0
    7.5460   -5.9820    0.5870 N   0  0  0  0  0  0  0  0  0  0  0  0
    6.4140   -5.8760    1.3400 C   0  0  0  0  0  0  0  0  0  0  0  0
    6.2080   -4.7830    2.1900 C   0  0  0  0  0  0  0  0  0  0  0  0
    7.1280   -3.7870    2.2610 N   0  0  0  0  0  0  0  0  0  0  0  0
    8.2450   -3.9110    1.4860 C   0  0  0  0  0  0  0  0  0  0  0  0
    5.4600   -6.9810    1.1320 C   0  0  0  0  0  0  0  0  0  0  0  0
    5.4530   -8.1230    1.9570 C   0  0  0  0  0  3  0  0  0  0  0  0
    4.5390   -9.1590    1.7420 C   0  0  0  0  0  3  0  0  0  0  0  0
    3.6170   -9.0570    0.7090 C   0  0  0  0  0  0  0  0  0  0  0  0
    2.7420  -10.0500    0.5050 F   0  0  0  0  0  0  0  0  0  0  0  0
    3.5850   -7.9370   -0.1100 C   0  0  0  0  0  3  0  0  0  0  0  0
    4.5000   -6.9020    0.1040 C   0  0  0  0  0  3  0  0  0  0  0  0
    5.0380   -4.5790    3.0600 C   0  0  0  0  0  0  0  0  0  0  0  0
    4.3510   -3.3500    3.0430 C   0  0  0  0  0  3  0  0  0  0  0  0
    3.2330   -3.1340    3.8520 C   0  0  0  0  0  3  0  0  0  0  0  0
    2.7960   -4.1480    4.6930 C   0  0  0  0  0  0  0  0  0  0  0  0
    1.7220   -3.9460    5.4680 F   0  0  0  0  0  0  0  0  0  0  0  0
    3.4610   -5.3660    4.7470 C   0  0  0  0  0  3  0  0  0  0  0  0
    4.5800   -5.5790    3.9390 C   0  0  0  0  0  3  0  0  0  0  0  0
    9.1540   -1.8420    2.2940 N   0  0  0  0  0  0  0  0  0  0  0  0
    8.3590   -1.8500    2.9290 H   0  0  0  0  0  0  0  0  0  0  0  0
    9.7430   -0.5610    1.9480 C   0  0  0  0  0  2  0  0  0  0  0  0
    9.1620   -0.0250    0.6320 C   0  0  0  0  0  2  0  0  0  0  0  0
   10.7800    1.7500   -0.2200 C   0  0  0  0  0  0  0  0  0  0  0  0
   11.7310    2.1760   -1.1520 C   0  0  0  0  0  3  0  0  0  0  0  0
   12.1590    1.3210   -2.1710 C   0  0  0  0  0  3  0  0  0  0  0  0
   11.6380    0.0340   -2.2660 C   0  0  0  0  0  3  0  0  0  0  0  0
   10.6840   -0.3980   -1.3470 C   0  0  0  0  0  3  0  0  0  0  0  0
   10.2410    0.4530   -0.3200 C   0  0  0  0  0  0  0  0  0  0  0  0
   11.0300    2.5280    2.0110 C   0  0  0  0  0  1  0  0  0  0  0  0
   10.2910    2.5300    0.7960 O   0  0  0  0  0  0  0  0  0  0  0  0
  1 10  2  0  0  0  0
  1 25  1  0  0  0  0
  2  1  1  0  0  0  0
  3  2  2  0  0  0  0
  4  3  1  0  0  0  0
  4  5  2  0  0  0  0
  5 10  1  0  0  0  0
  6  5  1  0  0  0  0
  6  7  2  0  0  0  0
  7  8  1  0  0  0  0
  8  9  2  0  0  0  0
  8 18  1  0  0  0  0
 10  9  1  0  0  0  0
 11  7  1  0  0  0  0
 11 12  1  0  0  0  0
 13 12  2  0  0  0  0
 14 13  1  0  0  0  0
 15 14  1  0  0  0  0
 16 17  1  0  0  0  0
 16 14  2  0  0  0  0
 17 11  2  0  0  0  0
 18 24  1  0  0  0  0
 19 18  2  0  0  0  0
 19 20  1  0  0  0  0
 20 21  2  0  0  0  0
 21 23  1  0  0  0  0
 21 22  1  0  0  0  0
 24 23  2  0  0  0  0
 25 26  1  0  0  0  0
 27 25  1  0  0  0  0
 28 27  1  0  0  0  0
 29 36  1  0  0  0  0
 30 29  2  0  0  0  0
 31 30  1  0  0  0  0
 32 31  2  0  0  0  0
 32 33  1  0  0  0  0
 33 34  2  0  0  0  0
 34 29  1  0  0  0  0
 34 28  1  0  0  0  0
 36 35  1  0  0  0  0
M  END
>  <minimizedAffinity>
-6.40509844

$$$$

 OpenBabel09132200393D

 36 40  0  0  0  0  0  0  0  0999 V2000
    6.0280   -6.0000    1.5370 C   0  0  0  0  0  0  0  0  0  0  0  0
    5.5320   -6.9350    0.7060 N   0  0  0  0  0  0  0  0  0  0  0  0
    6.0960   -7.0180   -0.5000 C   0  0  0  0  0  3  0  0  0  0  0  0
    7.1080   -6.2720   -0.9410 N   0  0  0  0  0  0  0  0  0  0  0  0
    7.6020   -5.3720   -0.0970 C   0  0  0  0  0  0  0  0  0  0  0  0
    8.6390   -4.6470   -0.5200 N   0  0  0  0  0  0  0  0  0  0  0  0
    9.2050   -3.7410    0.3280 C   0  0  0  0  0  0  0  0  0  0  0  0
    8.6970   -3.5370    1.6160 C   0  0  0  0  0  0  0  0  0  0  0  0
    7.6390   -4.2630    2.0590 N   0  0  0  0  0  0  0  0  0  0  0  0
    7.1000   -5.1730    1.1950 C   0  0  0  0  0  0  0  0  0  0  0  0
   10.3850   -3.0610   -0.2370 C   0  0  0  0  0  0  0  0  0  0  0  0
   11.6650   -3.6490   -0.2140 C   0  0  0  0  0  3  0  0  0  0  0  0
   12.7700   -2.9860   -0.7560 C   0  0  0  0  0  3  0  0  0  0  0  0
   12.6040   -1.7370   -1.3390 C   0  0  0  0  0  0  0  0  0  0  0  0
   13.6630   -1.1040   -1.8580 F   0  0  0  0  0  0  0  0  0  0  0  0
   11.3530   -1.1390   -1.3950 C   0  0  0  0  0  3  0  0  0  0  0  0
   10.2490   -1.8000   -0.8510 C   0  0  0  0  0  3  0  0  0  0  0  0
    9.2150   -2.5740    2.6010 C   0  0  0  0  0  0  0  0  0  0  0  0
    9.7880   -3.0320    3.8040 C   0  0  0  0  0  3  0  0  0  0  0  0
   10.2950   -2.1390    4.7500 C   0  0  0  0  0  3  0  0  0  0  0  0
   10.2250   -0.7750    4.5060 C   0  0  0  0  0  0  0  0  0  0  0  0
   10.7120    0.0840    5.4110 F   0  0  0  0  0  0  0  0  0  0  0  0
    9.6510   -0.2880    3.3380 C   0  0  0  0  0  3  0  0  0  0  0  0
    9.1430   -1.1830    2.3930 C   0  0  0  0  0  3  0  0  0  0  0  0
    5.4290   -5.8360    2.7840 N   0  0  0  0  0  0  0  0  0  0  0  0
    5.5800   -4.9320    3.2260 H   0  0  0  0  0  0  0  0  0  0  0  0
    5.1200   -6.9720    3.6350 C   0  0  0  0  0  2  0  0  0  0  0  0
    3.6230   -7.0140    3.9750 C   0  0  0  0  0  2  0  0  0  0  0  0
    1.8120   -8.7980    3.8050 C   0  0  0  0  0  0  0  0  0  0  0  0
    1.2010   -9.8440    3.1060 C   0  0  0  0  0  3  0  0  0  0  0  0
    1.6500  -10.2020    1.8330 C   0  0  0  0  0  3  0  0  0  0  0  0
    2.7110   -9.5180    1.2490 C   0  0  0  0  0  3  0  0  0  0  0  0
    3.3320   -8.4790    1.9400 C   0  0  0  0  0  3  0  0  0  0  0  0
    2.8940   -8.1120    3.2240 C   0  0  0  0  0  0  0  0  0  0  0  0
    0.1050   -8.6570    5.4530 C   0  0  0  0  0  1  0  0  0  0  0  0
    1.4490   -8.3970    5.0650 O   0  0  0  0  0  0  0  0  0  0  0  0
  1 25  1  0  0  0  0
  2  1  1  0  0  0  0
  3  2  2  0  0  0  0
  4  3  1  0  0  0  0
  4  5  2  0  0  0  0
  5 10  1  0  0  0  0
  6  5  1  0  0  0  0
  6  7  2  0  0  0  0
  7  8  1  0  0  0  0
  8  9  2  0  0  0  0
  8 18  1  0  0  0  0
 10  1  2  0  0  0  0
 10  9  1  0  0  0  0
 11 12  1  0  0  0  0
 11  7  1  0  0  0  0
 13 12  2  0  0  0  0
 14 13  1  0  0  0  0
 15 14  1  0  0  0  0
 16 14  2  0  0  0  0
 16 17  1  0  0  0  0
 17 11  2  0  0  0  0
 18 19  1  0  0  0  0
 19 20  2  0  0  0  0
 21 20  1  0  0  0  0
 21 22  1  0  0  0  0
 23 21  2  0  0  0  0
 24 18  2  0  0  0  0
 24 23  1  0  0  0  0
 25 26  1  0  0  0  0
 25 27  1  0  0  0  0
 27 28  1  0  0  0  0
 29 36  1  0  0  0  0
 30 29  2  0  0  0  0
 31 30  1  0  0  0  0
 32 31  2  0  0  0  0
 32 33  1  0  0  0  0
 33 34  2  0  0  0  0
 34 29  1  0  0  0  0
 34 28  1  0  0  0  0
 36 35  1  0  0  0  0
M  END
>  <minimizedAffinity>
-6.13587332

$$$$

 OpenBabel09132200393D

 36 40  0  0  0  0  0  0  0  0999 V2000
   12.8350   -4.1010  -13.3900 C   0  0  0  0  0  0  0  0  0  0  0  0
   13.5130   -3.0070  -13.7840 N   0  0  0  0  0  0  0  0  0  0  0  0
   12.8030   -2.0570  -14.3940 C   0  0  0  0  0  3  0  0  0  0  0  0
   11.4920   -2.0910  -14.6280 N   0  0  0  0  0  0  0  0  0  0  0  0
   10.8350   -3.1670  -14.2080 C   0  0  0  0  0  0  0  0  0  0  0  0
    9.5170   -3.1910  -14.4080 N   0  0  0  0  0  0  0  0  0  0  0  0
    8.7960   -4.2560  -13.9560 C   0  0  0  0  0  0  0  0  0  0  0  0
    9.4190   -5.3360  -13.3170 C   0  0  0  0  0  0  0  0  0  0  0  0
   10.7610   -5.3290  -13.1120 N   0  0  0  0  0  0  0  0  0  0  0  0
   11.4570   -4.2430  -13.5630 C   0  0  0  0  0  0  0  0  0  0  0  0
    7.3440   -4.1230  -14.1760 C   0  0  0  0  0  0  0  0  0  0  0  0
    6.4940   -5.2450  -14.2330 C   0  0  0  0  0  3  0  0  0  0  0  0
    5.1200   -5.0960  -14.4410 C   0  0  0  0  0  3  0  0  0  0  0  0
    4.5810   -3.8240  -14.5820 C   0  0  0  0  0  0  0  0  0  0  0  0
    3.2650   -3.6830  -14.7810 F   0  0  0  0  0  0  0  0  0  0  0  0
    5.3880   -2.6970  -14.5120 C   0  0  0  0  0  3  0  0  0  0  0  0
    6.7620   -2.8470  -14.3050 C   0  0  0  0  0  3  0  0  0  0  0  0
    8.7430   -6.5410  -12.8110 C   0  0  0  0  0  0  0  0  0  0  0  0
    7.9190   -6.4620  -11.6720 C   0  0  0  0  0  3  0  0  0  0  0  0
    7.2590   -7.5890  -11.1770 C   0  0  0  0  0  3  0  0  0  0  0  0
    7.4260   -8.8110  -11.8140 C   0  0  0  0  0  0  0  0  0  0  0  0
    6.7930   -9.8930  -11.3430 F   0  0  0  0  0  0  0  0  0  0  0  0
    8.2460   -8.9270  -12.9290 C   0  0  0  0  0  3  0  0  0  0  0  0
    8.9060   -7.7990  -13.4220 C   0  0  0  0  0  3  0  0  0  0  0  0
   13.5460   -5.1470  -12.8040 N   0  0  0  0  0  0  0  0  0  0  0  0
   14.4370   -4.8890  -12.3860 H   0  0  0  0  0  0  0  0  0  0  0  0
   13.3590   -6.5240  -13.2260 C   0  0  0  0  0  2  0  0  0  0  0  0
   13.7590   -7.5000  -12.1100 C   0  0  0  0  0  2  0  0  0  0  0  0
   12.0240   -7.1680  -10.2740 C   0  0  0  0  0  0  0  0  0  0  0  0
   10.9590   -7.6550   -9.5080 C   0  0  0  0  0  3  0  0  0  0  0  0
   10.4230   -8.9190   -9.7630 C   0  0  0  0  0  3  0  0  0  0  0  0
   10.9450   -9.7060  -10.7850 C   0  0  0  0  0  3  0  0  0  0  0  0
   12.0110   -9.2330  -11.5480 C   0  0  0  0  0  3  0  0  0  0  0  0
   12.5640   -7.9660  -11.3000 C   0  0  0  0  0  0  0  0  0  0  0  0
   11.8290   -4.9440   -9.4580 C   0  0  0  0  0  1  0  0  0  0  0  0
   12.6220   -5.9500  -10.0770 O   0  0  0  0  0  0  0  0  0  0  0  0
  1 25  1  0  0  0  0
  2  1  1  0  0  0  0
  3  2  2  0  0  0  0
  4  3  1  0  0  0  0
  4  5  2  0  0  0  0
  5 10  1  0  0  0  0
  6  5  1  0  0  0  0
  6  7  2  0  0  0  0
  7  8  1  0  0  0  0
  8  9  2  0  0  0  0
  8 18  1  0  0  0  0
 10  1  2  0  0  0  0
 10  9  1  0  0  0  0
 11  7  1  0  0  0  0
 12 11  1  0  0  0  0
 13 12  2  0  0  0  0
 14 16  2  0  0  0  0
 14 13  1  0  0  0  0
 15 14  1  0  0  0  0
 16 17  1  0  0  0  0
 17 11  2  0  0  0  0
 18 19  1  0  0  0  0
 19 20  2  0  0  0  0
 21 22  1  0  0  0  0
 21 20  1  0  0  0  0
 23 21  2  0  0  0  0
 24 23  1  0  0  0  0
 24 18  2  0  0  0  0
 25 26  1  0  0  0  0
 27 25  1  0  0  0  0
 27 28  1  0  0  0  0
 28 34  1  0  0  0  0
 29 36  1  0  0  0  0
 29 30  1  0  0  0  0
 31 30  2  0  0  0  0
 32 31  1  0  0  0  0
 33 34  1  0  0  0  0
 33 32  2  0  0  0  0
 34 29  2  0  0  0  0
 36 35  1  0  0  0  0
M  END
>  <minimizedAffinity>
-5.58206654

$$$$

 OpenBabel09132200393D

 36 40  0  0  0  0  0  0  0  0999 V2000
    6.3660   -5.5870    1.8090 C   0  0  0  0  0  0  0  0  0  0  0  0
    5.3220   -5.9020    2.5960 N   0  0  0  0  0  0  0  0  0  0  0  0
    5.1250   -5.1250    3.6620 C   0  0  0  0  0  3  0  0  0  0  0  0
    5.8580   -4.0650    4.0010 N   0  0  0  0  0  0  0  0  0  0  0  0
    6.8690   -3.7530    3.1960 C   0  0  0  0  0  0  0  0  0  0  0  0
    7.5850   -2.6720    3.5100 N   0  0  0  0  0  0  0  0  0  0  0  0
    8.6050   -2.2900    2.6910 C   0  0  0  0  0  0  0  0  0  0  0  0
    8.9340   -3.0300    1.5480 C   0  0  0  0  0  0  0  0  0  0  0  0
    8.2190   -4.1360    1.2190 N   0  0  0  0  0  0  0  0  0  0  0  0
    7.1930   -4.4880    2.0490 C   0  0  0  0  0  0  0  0  0  0  0  0
    9.2650   -1.0400    3.1120 C   0  0  0  0  0  0  0  0  0  0  0  0
    9.2780    0.1070    2.2950 C   0  0  0  0  0  3  0  0  0  0  0  0
    9.9090    1.2810    2.7160 C   0  0  0  0  0  3  0  0  0  0  0  0
   10.5210    1.3230    3.9610 C   0  0  0  0  0  0  0  0  0  0  0  0
   11.1250    2.4500    4.3620 F   0  0  0  0  0  0  0  0  0  0  0  0
   10.5100    0.2170    4.7980 C   0  0  0  0  0  3  0  0  0  0  0  0
    9.8800   -0.9580    4.3770 C   0  0  0  0  0  3  0  0  0  0  0  0
   10.0250   -2.7210    0.6100 C   0  0  0  0  0  0  0  0  0  0  0  0
    9.8280   -1.7750   -0.4150 C   0  0  0  0  0  3  0  0  0  0  0  0
   10.8500   -1.4580   -1.3130 C   0  0  0  0  0  3  0  0  0  0  0  0
   12.0780   -2.0930   -1.1980 C   0  0  0  0  0  0  0  0  0  0  0  0
   13.0610   -1.7900   -2.0560 F   0  0  0  0  0  0  0  0  0  0  0  0
   12.3000   -3.0440   -0.2110 C   0  0  0  0  0  3  0  0  0  0  0  0
   11.2760   -3.3610    0.6860 C   0  0  0  0  0  3  0  0  0  0  0  0
    6.6470   -6.4080    0.7180 N   0  0  0  0  0  0  0  0  0  0  0  0
    7.6230   -6.4420    0.4370 H   0  0  0  0  0  0  0  0  0  0  0  0
    5.6350   -6.7260   -0.2750 C   0  0  0  0  0  2  0  0  0  0  0  0
    5.3880   -8.2390   -0.3430 C   0  0  0  0  0  2  0  0  0  0  0  0
    4.6310   -9.1300    1.9220 C   0  0  0  0  0  0  0  0  0  0  0  0
    3.6160   -9.5920    2.7660 C   0  0  0  0  0  3  0  0  0  0  0  0
    2.2880   -9.6060    2.3360 C   0  0  0  0  0  3  0  0  0  0  0  0
    1.9630   -9.1590    1.0580 C   0  0  0  0  0  3  0  0  0  0  0  0
    2.9680   -8.7040    0.2060 C   0  0  0  0  0  3  0  0  0  0  0  0
    4.3090   -8.6890    0.6250 C   0  0  0  0  0  0  0  0  0  0  0  0
    6.2800   -9.3760    3.6160 C   0  0  0  0  0  1  0  0  0  0  0  0
    5.9600   -9.1020    2.2570 O   0  0  0  0  0  0  0  0  0  0  0  0
  1 10  2  0  0  0  0
  1  2  1  0  0  0  0
  2  3  2  0  0  0  0
  3  4  1  0  0  0  0
  5  6  1  0  0  0  0
  5  4  2  0  0  0  0
  7 11  1  0  0  0  0
  7  6  2  0  0  0  0
  8  7  1  0  0  0  0
  9  8  2  0  0  0  0
  9 10  1  0  0  0  0
 10  5  1  0  0  0  0
 11 17  1  0  0  0  0
 12 13  1  0  0  0  0
 12 11  2  0  0  0  0
 13 14  2  0  0  0  0
 14 15  1  0  0  0  0
 14 16  1  0  0  0  0
 17 16  2  0  0  0  0
 18 24  1  0  0  0  0
 18  8  1  0  0  0  0
 19 18  2  0  0  0  0
 20 21  2  0  0  0  0
 20 19  1  0  0  0  0
 21 23  1  0  0  0  0
 22 21  1  0  0  0  0
 23 24  2  0  0  0  0
 25  1  1  0  0  0  0
 26 25  1  0  0  0  0
 27 25  1  0  0  0  0
 28 27  1  0  0  0  0
 28 34  1  0  0  0  0
 29 36  1  0  0  0  0
 29 30  1  0  0  0  0
 31 30  2  0  0  0  0
 32 31  1  0  0  0  0
 33 34  1  0  0  0  0
 33 32  2  0  0  0  0
 34 29  2  0  0  0  0
 36 35  1  0  0  0  0
M  END
>  <minimizedAffinity>
-5.55450296

$$$$
