
 OpenBabel09132204463D

 29 31  0  0  0  0  0  0  0  0999 V2000
    1.1830    6.5240   -8.9510 C   0  0  0  0  0  0  0  0  0  0  0  0
    0.2710    7.2390   -9.5140 N   0  0  0  0  0  0  0  0  0  0  0  0
   -1.0280    7.0300   -9.0990 C   0  0  0  0  0  0  0  0  0  0  0  0
   -1.3930    6.0960   -8.1990 C   0  0  0  0  0  0  0  0  0  0  0  0
   -0.3210    5.2690   -7.6080 C   0  0  0  0  0  0  0  0  0  0  0  0
   -0.5440    4.3770   -6.7970 O   0  0  0  0  0  0  0  0  0  0  0  0
    0.9430    5.5680   -8.0200 N   0  0  0  0  0  0  0  0  0  0  0  0
    1.7110    5.0300   -7.6460 H   0  0  0  0  0  0  0  0  0  0  0  0
   -2.0370    7.9250   -9.7020 C   0  0  0  0  0  0  0  0  0  0  0  0
   -3.1940    7.4050  -10.2960 C   0  0  0  0  0  3  0  0  0  0  0  0
   -4.1420    8.2580  -10.8600 C   0  0  0  0  0  3  0  0  0  0  0  0
   -3.9460    9.6400  -10.8300 C   0  0  0  0  0  3  0  0  0  0  0  0
   -2.7970   10.1820  -10.2360 C   0  0  0  0  0  0  0  0  0  0  0  0
   -1.8520    9.3140   -9.6630 C   0  0  0  0  0  3  0  0  0  0  0  0
   -2.5980   11.6760  -10.1700 C   0  0  0  0  0  0  0  0  0  0  0  0
   -3.1630   12.2260   -9.0610 F   0  0  0  0  0  0  0  0  0  0  0  0
   -1.2850   12.0350  -10.1370 F   0  0  0  0  0  0  0  0  0  0  0  0
   -3.1370   12.3370  -11.2320 F   0  0  0  0  0  0  0  0  0  0  0  0
   -2.8220    5.8820   -7.7280 C   0  0  0  0  0  2  0  0  0  0  0  0
   -4.0070    5.7050   -7.3360 N   0  0  0  0  0  1  0  0  0  0  0  0
    2.8610    6.7270   -9.3230 S   0  0  0  0  0  0  0  0  0  0  0  0
    3.1620    5.1200  -10.1130 C   0  0  0  0  0  2  0  0  0  0  0  0
    2.2140    3.4410   -5.4500 C   0  0  0  0  0  1  0  0  0  0  0  0
    2.6410    3.1780   -6.8640 C   0  0  0  0  0  0  0  0  0  0  0  0
    3.0810    1.9050   -7.2430 C   0  0  0  0  0  3  0  0  0  0  0  0
    3.5090    1.6640   -8.5480 C   0  0  0  0  0  3  0  0  0  0  0  0
    3.5150    2.6990   -9.4820 C   0  0  0  0  0  3  0  0  0  0  0  0
    3.0980    3.9870   -9.1190 C   0  0  0  0  0  0  0  0  0  0  0  0
    2.6630    4.2160   -7.8040 C   0  0  0  0  0  3  0  0  0  0  0  0
  1  7  1  0  0  0  0
  2  3  1  0  0  0  0
  2  1  2  0  0  0  0
  3  4  2  0  0  0  0
  4 19  1  0  0  0  0
  4  5  1  0  0  0  0
  5  6  2  0  0  0  0
  7  8  1  0  0  0  0
  7  5  1  0  0  0  0
  9 14  1  0  0  0  0
  9  3  1  0  0  0  0
 10  9  2  0  0  0  0
 11 12  2  0  0  0  0
 11 10  1  0  0  0  0
 12 13  1  0  0  0  0
 13 15  1  0  0  0  0
 13 14  2  0  0  0  0
 15 17  1  0  0  0  0
 15 16  1  0  0  0  0
 18 15  1  0  0  0  0
 19 20  1  0  0  0  0
 21  1  1  0  0  0  0
 22 21  1  0  0  0  0
 22 28  1  0  0  0  0
 24 23  1  0  0  0  0
 25 24  1  0  0  0  0
 26 25  2  0  0  0  0
 27 28  2  0  0  0  0
 27 26  1  0  0  0  0
 28 29  1  0  0  0  0
 29 24  2  0  0  0  0
M  END
>  <minimizedAffinity>
49.9991226

$$$$
