
 OpenBabel09122223143D

 29 31  0  0  0  0  0  0  0  0999 V2000
   -2.4030    4.7480   -7.5870 C   0  0  0  0  0  0  0  0  0  0  0  0
   -2.8400    5.7420   -8.2800 N   0  0  0  0  0  0  0  0  0  0  0  0
   -1.8930    6.5880   -8.8190 C   0  0  0  0  0  0  0  0  0  0  0  0
   -0.5680    6.4690   -8.6140 C   0  0  0  0  0  0  0  0  0  0  0  0
   -0.1100    5.3400   -7.7790 C   0  0  0  0  0  0  0  0  0  0  0  0
    1.0710    5.1510   -7.5110 O   0  0  0  0  0  0  0  0  0  0  0  0
   -1.0930    4.5110   -7.3270 N   0  0  0  0  0  0  0  0  0  0  0  0
   -0.8320    3.7240   -6.7500 H   0  0  0  0  0  0  0  0  0  0  0  0
   -2.4260    7.6660   -9.6790 C   0  0  0  0  0  0  0  0  0  0  0  0
   -3.2730    7.3730  -10.7560 C   0  0  0  0  0  3  0  0  0  0  0  0
   -3.7730    8.3970  -11.5590 C   0  0  0  0  0  3  0  0  0  0  0  0
   -3.4370    9.7250  -11.2900 C   0  0  0  0  0  3  0  0  0  0  0  0
   -2.5940   10.0420  -10.2140 C   0  0  0  0  0  0  0  0  0  0  0  0
   -2.1030    9.0030   -9.4060 C   0  0  0  0  0  3  0  0  0  0  0  0
   -2.2570   11.4780   -9.9000 C   0  0  0  0  0  0  0  0  0  0  0  0
   -0.9170   11.7170   -9.9460 F   0  0  0  0  0  0  0  0  0  0  0  0
   -2.8220   12.3580  -10.7710 F   0  0  0  0  0  0  0  0  0  0  0  0
   -2.6650   11.8670   -8.6600 F   0  0  0  0  0  0  0  0  0  0  0  0
    0.4740    7.3910   -9.2270 C   0  0  0  0  0  2  0  0  0  0  0  0
    1.3380    8.1550   -9.7360 N   0  0  0  0  0  1  0  0  0  0  0  0
   -3.4700    3.5670   -6.9090 S   0  0  0  0  0  0  0  0  0  0  0  0
   -2.4590    2.0870   -7.1930 C   0  0  0  0  0  2  0  0  0  0  0  0
    2.4700    2.2860   -6.1250 C   0  0  0  0  0  1  0  0  0  0  0  0
    1.0520    2.0760   -5.6830 C   0  0  0  0  0  0  0  0  0  0  0  0
    0.7730    1.6800   -4.3690 C   0  0  0  0  0  3  0  0  0  0  0  0
   -0.5400    1.4540   -3.9630 C   0  0  0  0  0  3  0  0  0  0  0  0
   -1.5880    1.6060   -4.8700 C   0  0  0  0  0  3  0  0  0  0  0  0
   -1.3310    1.9810   -6.1960 C   0  0  0  0  0  0  0  0  0  0  0  0
   -0.0040    2.2140   -6.5930 C   0  0  0  0  0  3  0  0  0  0  0  0
  1  7  1  0  0  0  0
  1 21  1  0  0  0  0
  2  1  2  0  0  0  0
  3  4  2  0  0  0  0
  3  2  1  0  0  0  0
  4  5  1  0  0  0  0
  5  6  2  0  0  0  0
  5  7  1  0  0  0  0
  7  8  1  0  0  0  0
  9 14  1  0  0  0  0
  9  3  1  0  0  0  0
 10  9  2  0  0  0  0
 11 12  2  0  0  0  0
 11 10  1  0  0  0  0
 12 13  1  0  0  0  0
 13 15  1  0  0  0  0
 13 14  2  0  0  0  0
 15 18  1  0  0  0  0
 16 15  1  0  0  0  0
 17 15  1  0  0  0  0
 19  4  1  0  0  0  0
 20 19  1  0  0  0  0
 22 21  1  0  0  0  0
 22 28  1  0  0  0  0
 23 24  1  0  0  0  0
 24 25  1  0  0  0  0
 25 26  2  0  0  0  0
 27 26  1  0  0  0  0
 28 27  2  0  0  0  0
 29 28  1  0  0  0  0
 29 24  2  0  0  0  0
M  END
>  <minimizedAffinity>
49.0643959

$$$$

 OpenBabel09122223143D

 29 31  0  0  0  0  0  0  0  0999 V2000
   -2.1620    4.3620   -7.8150 C   0  0  0  0  0  0  0  0  0  0  0  0
   -2.6420    5.3640   -8.4690 N   0  0  0  0  0  0  0  0  0  0  0  0
   -1.7530    6.3530   -8.8330 C   0  0  0  0  0  0  0  0  0  0  0  0
   -0.4490    6.3580   -8.4970 C   0  0  0  0  0  0  0  0  0  0  0  0
    0.0540    5.2120   -7.7120 C   0  0  0  0  0  0  0  0  0  0  0  0
    1.2180    5.1280   -7.3350 O   0  0  0  0  0  0  0  0  0  0  0  0
   -0.8650    4.2450   -7.4360 N   0  0  0  0  0  0  0  0  0  0  0  0
   -0.5710    3.4410   -6.9000 H   0  0  0  0  0  0  0  0  0  0  0  0
   -2.3200    7.4420   -9.6550 C   0  0  0  0  0  0  0  0  0  0  0  0
   -3.0880    7.1580  -10.7920 C   0  0  0  0  0  3  0  0  0  0  0  0
   -3.6220    8.1920  -11.5600 C   0  0  0  0  0  3  0  0  0  0  0  0
   -3.4000    9.5210  -11.1940 C   0  0  0  0  0  3  0  0  0  0  0  0
   -2.6390    9.8280  -10.0570 C   0  0  0  0  0  0  0  0  0  0  0  0
   -2.1120    8.7780   -9.2860 C   0  0  0  0  0  3  0  0  0  0  0  0
   -2.4260   11.2620   -9.6400 C   0  0  0  0  0  0  0  0  0  0  0  0
   -1.8020   11.9940  -10.6020 F   0  0  0  0  0  0  0  0  0  0  0  0
   -3.5910   11.9150   -9.3720 F   0  0  0  0  0  0  0  0  0  0  0  0
   -1.6640   11.3880   -8.5190 F   0  0  0  0  0  0  0  0  0  0  0  0
    0.5340    7.4390   -8.9190 C   0  0  0  0  0  2  0  0  0  0  0  0
    1.3490    8.3350   -9.2680 N   0  0  0  0  0  1  0  0  0  0  0  0
   -3.1460    3.0170   -7.3530 S   0  0  0  0  0  0  0  0  0  0  0  0
   -1.8740    1.7220   -7.3870 C   0  0  0  0  0  2  0  0  0  0  0  0
   -1.5400    1.3410   -2.3650 C   0  0  0  0  0  1  0  0  0  0  0  0
   -0.8840    1.5400   -3.7000 C   0  0  0  0  0  0  0  0  0  0  0  0
    0.4840    1.8290   -3.7790 C   0  0  0  0  0  3  0  0  0  0  0  0
    1.0900    2.0450   -5.0150 C   0  0  0  0  0  3  0  0  0  0  0  0
    0.3330    1.9890   -6.1840 C   0  0  0  0  0  3  0  0  0  0  0  0
   -1.0430    1.7220   -6.1270 C   0  0  0  0  0  0  0  0  0  0  0  0
   -1.6420    1.4990   -4.8770 C   0  0  0  0  0  3  0  0  0  0  0  0
  1  7  1  0  0  0  0
  1 21  1  0  0  0  0
  2  1  2  0  0  0  0
  3  4  2  0  0  0  0
  3  2  1  0  0  0  0
  4  5  1  0  0  0  0
  5  7  1  0  0  0  0
  5  6  2  0  0  0  0
  7  8  1  0  0  0  0
  9 14  1  0  0  0  0
  9  3  1  0  0  0  0
 10  9  2  0  0  0  0
 11 12  2  0  0  0  0
 11 10  1  0  0  0  0
 12 13  1  0  0  0  0
 13 15  1  0  0  0  0
 13 14  2  0  0  0  0
 15 17  1  0  0  0  0
 15 18  1  0  0  0  0
 16 15  1  0  0  0  0
 19  4  1  0  0  0  0
 20 19  1  0  0  0  0
 22 21  1  0  0  0  0
 22 28  1  0  0  0  0
 24 23  1  0  0  0  0
 25 24  1  0  0  0  0
 26 25  2  0  0  0  0
 27 28  2  0  0  0  0
 27 26  1  0  0  0  0
 28 29  1  0  0  0  0
 29 24  2  0  0  0  0
M  END
>  <minimizedAffinity>
49.8889008

$$$$

 OpenBabel09122223143D

 29 31  0  0  0  0  0  0  0  0999 V2000
    1.1830    6.5240   -8.9510 C   0  0  0  0  0  0  0  0  0  0  0  0
    0.2710    7.2390   -9.5140 N   0  0  0  0  0  0  0  0  0  0  0  0
   -1.0280    7.0300   -9.0990 C   0  0  0  0  0  0  0  0  0  0  0  0
   -1.3930    6.0960   -8.1990 C   0  0  0  0  0  0  0  0  0  0  0  0
   -0.3210    5.2690   -7.6080 C   0  0  0  0  0  0  0  0  0  0  0  0
   -0.5440    4.3770   -6.7970 O   0  0  0  0  0  0  0  0  0  0  0  0
    0.9430    5.5680   -8.0200 N   0  0  0  0  0  0  0  0  0  0  0  0
    1.7110    5.0300   -7.6460 H   0  0  0  0  0  0  0  0  0  0  0  0
   -2.0370    7.9250   -9.7020 C   0  0  0  0  0  0  0  0  0  0  0  0
   -3.1940    7.4050  -10.2960 C   0  0  0  0  0  3  0  0  0  0  0  0
   -4.1420    8.2580  -10.8600 C   0  0  0  0  0  3  0  0  0  0  0  0
   -3.9460    9.6400  -10.8300 C   0  0  0  0  0  3  0  0  0  0  0  0
   -2.7970   10.1820  -10.2360 C   0  0  0  0  0  0  0  0  0  0  0  0
   -1.8520    9.3140   -9.6630 C   0  0  0  0  0  3  0  0  0  0  0  0
   -2.5980   11.6760  -10.1700 C   0  0  0  0  0  0  0  0  0  0  0  0
   -3.1630   12.2260   -9.0610 F   0  0  0  0  0  0  0  0  0  0  0  0
   -1.2850   12.0350  -10.1370 F   0  0  0  0  0  0  0  0  0  0  0  0
   -3.1370   12.3370  -11.2320 F   0  0  0  0  0  0  0  0  0  0  0  0
   -2.8220    5.8820   -7.7280 C   0  0  0  0  0  2  0  0  0  0  0  0
   -4.0070    5.7050   -7.3360 N   0  0  0  0  0  1  0  0  0  0  0  0
    2.8610    6.7270   -9.3230 S   0  0  0  0  0  0  0  0  0  0  0  0
    3.1620    5.1200  -10.1130 C   0  0  0  0  0  2  0  0  0  0  0  0
    2.2140    3.4410   -5.4500 C   0  0  0  0  0  1  0  0  0  0  0  0
    2.6410    3.1780   -6.8640 C   0  0  0  0  0  0  0  0  0  0  0  0
    3.0810    1.9050   -7.2430 C   0  0  0  0  0  3  0  0  0  0  0  0
    3.5090    1.6640   -8.5480 C   0  0  0  0  0  3  0  0  0  0  0  0
    3.5150    2.6990   -9.4820 C   0  0  0  0  0  3  0  0  0  0  0  0
    3.0980    3.9870   -9.1190 C   0  0  0  0  0  0  0  0  0  0  0  0
    2.6630    4.2160   -7.8040 C   0  0  0  0  0  3  0  0  0  0  0  0
  1  7  1  0  0  0  0
  2  3  1  0  0  0  0
  2  1  2  0  0  0  0
  3  4  2  0  0  0  0
  4 19  1  0  0  0  0
  4  5  1  0  0  0  0
  5  6  2  0  0  0  0
  7  8  1  0  0  0  0
  7  5  1  0  0  0  0
  9 14  1  0  0  0  0
  9  3  1  0  0  0  0
 10  9  2  0  0  0  0
 11 12  2  0  0  0  0
 11 10  1  0  0  0  0
 12 13  1  0  0  0  0
 13 15  1  0  0  0  0
 13 14  2  0  0  0  0
 15 17  1  0  0  0  0
 15 16  1  0  0  0  0
 18 15  1  0  0  0  0
 19 20  1  0  0  0  0
 21  1  1  0  0  0  0
 22 21  1  0  0  0  0
 22 28  1  0  0  0  0
 24 23  1  0  0  0  0
 25 24  1  0  0  0  0
 26 25  2  0  0  0  0
 27 28  2  0  0  0  0
 27 26  1  0  0  0  0
 28 29  1  0  0  0  0
 29 24  2  0  0  0  0
M  END
>  <minimizedAffinity>
49.9991226

$$$$

 OpenBabel09122223143D

 29 31  0  0  0  0  0  0  0  0999 V2000
   -2.1960    4.4990   -7.6790 C   0  0  0  0  0  0  0  0  0  0  0  0
   -2.6770    5.4790   -8.3640 N   0  0  0  0  0  0  0  0  0  0  0  0
   -1.7750    6.4100   -8.8350 C   0  0  0  0  0  0  0  0  0  0  0  0
   -0.4550    6.3850   -8.5710 C   0  0  0  0  0  0  0  0  0  0  0  0
    0.0510    5.2680   -7.7460 C   0  0  0  0  0  0  0  0  0  0  0  0
    1.2300    5.1610   -7.4290 O   0  0  0  0  0  0  0  0  0  0  0  0
   -0.8850    4.3540   -7.3640 N   0  0  0  0  0  0  0  0  0  0  0  0
   -0.5900    3.5720   -6.7980 H   0  0  0  0  0  0  0  0  0  0  0  0
   -2.3500    7.4710   -9.6880 C   0  0  0  0  0  0  0  0  0  0  0  0
   -3.1920    7.1510  -10.7620 C   0  0  0  0  0  3  0  0  0  0  0  0
   -3.7320    8.1600  -11.5600 C   0  0  0  0  0  3  0  0  0  0  0  0
   -3.4420    9.4970  -11.2880 C   0  0  0  0  0  3  0  0  0  0  0  0
   -2.6060    9.8410  -10.2150 C   0  0  0  0  0  0  0  0  0  0  0  0
   -2.0730    8.8170   -9.4130 C   0  0  0  0  0  3  0  0  0  0  0  0
   -2.3170   11.2870   -9.8980 C   0  0  0  0  0  0  0  0  0  0  0  0
   -3.1770   12.1360  -10.5260 F   0  0  0  0  0  0  0  0  0  0  0  0
   -2.4180   11.5690   -8.5700 F   0  0  0  0  0  0  0  0  0  0  0  0
   -1.0660   11.6790  -10.2670 F   0  0  0  0  0  0  0  0  0  0  0  0
    0.5390    7.4010   -9.1090 C   0  0  0  0  0  2  0  0  0  0  0  0
    1.3630    8.2440   -9.5550 N   0  0  0  0  0  1  0  0  0  0  0  0
   -3.1990    3.2210   -7.0840 S   0  0  0  0  0  0  0  0  0  0  0  0
   -1.9550    1.9000   -7.0250 C   0  0  0  0  0  2  0  0  0  0  0  0
   -3.6650   -1.6620   -3.8860 C   0  0  0  0  0  1  0  0  0  0  0  0
   -2.7550   -0.5010   -4.1620 C   0  0  0  0  0  0  0  0  0  0  0  0
   -1.9500    0.0230   -3.1450 C   0  0  0  0  0  3  0  0  0  0  0  0
   -1.1270    1.1200   -3.3890 C   0  0  0  0  0  3  0  0  0  0  0  0
   -1.1120    1.7150   -4.6500 C   0  0  0  0  0  3  0  0  0  0  0  0
   -1.9260    1.2200   -5.6790 C   0  0  0  0  0  0  0  0  0  0  0  0
   -2.7460    0.1090   -5.4230 C   0  0  0  0  0  3  0  0  0  0  0  0
  1  7  1  0  0  0  0
  1 21  1  0  0  0  0
  2  1  2  0  0  0  0
  3  4  2  0  0  0  0
  3  2  1  0  0  0  0
  4  5  1  0  0  0  0
  5  6  2  0  0  0  0
  5  7  1  0  0  0  0
  7  8  1  0  0  0  0
  9 14  1  0  0  0  0
  9  3  1  0  0  0  0
 10  9  2  0  0  0  0
 11 12  2  0  0  0  0
 11 10  1  0  0  0  0
 12 13  1  0  0  0  0
 13 15  1  0  0  0  0
 13 14  2  0  0  0  0
 15 17  1  0  0  0  0
 16 15  1  0  0  0  0
 18 15  1  0  0  0  0
 19  4  1  0  0  0  0
 20 19  1  0  0  0  0
 21 22  1  0  0  0  0
 22 28  1  0  0  0  0
 24 23  1  0  0  0  0
 24 25  1  0  0  0  0
 26 25  2  0  0  0  0
 27 26  1  0  0  0  0
 28 29  1  0  0  0  0
 28 27  2  0  0  0  0
 29 24  2  0  0  0  0
M  END
>  <minimizedAffinity>
50.5802383

$$$$
