
 OpenBabel09132204463D

 29 31  0  0  0  0  0  0  0  0999 V2000
   -2.1960    4.4990   -7.6790 C   0  0  0  0  0  0  0  0  0  0  0  0
   -2.6770    5.4790   -8.3640 N   0  0  0  0  0  0  0  0  0  0  0  0
   -1.7750    6.4100   -8.8350 C   0  0  0  0  0  0  0  0  0  0  0  0
   -0.4550    6.3850   -8.5710 C   0  0  0  0  0  0  0  0  0  0  0  0
    0.0510    5.2680   -7.7460 C   0  0  0  0  0  0  0  0  0  0  0  0
    1.2300    5.1610   -7.4290 O   0  0  0  0  0  0  0  0  0  0  0  0
   -0.8850    4.3540   -7.3640 N   0  0  0  0  0  0  0  0  0  0  0  0
   -0.5900    3.5720   -6.7980 H   0  0  0  0  0  0  0  0  0  0  0  0
   -2.3500    7.4710   -9.6880 C   0  0  0  0  0  0  0  0  0  0  0  0
   -3.1920    7.1510  -10.7620 C   0  0  0  0  0  3  0  0  0  0  0  0
   -3.7320    8.1600  -11.5600 C   0  0  0  0  0  3  0  0  0  0  0  0
   -3.4420    9.4970  -11.2880 C   0  0  0  0  0  3  0  0  0  0  0  0
   -2.6060    9.8410  -10.2150 C   0  0  0  0  0  0  0  0  0  0  0  0
   -2.0730    8.8170   -9.4130 C   0  0  0  0  0  3  0  0  0  0  0  0
   -2.3170   11.2870   -9.8980 C   0  0  0  0  0  0  0  0  0  0  0  0
   -3.1770   12.1360  -10.5260 F   0  0  0  0  0  0  0  0  0  0  0  0
   -2.4180   11.5690   -8.5700 F   0  0  0  0  0  0  0  0  0  0  0  0
   -1.0660   11.6790  -10.2670 F   0  0  0  0  0  0  0  0  0  0  0  0
    0.5390    7.4010   -9.1090 C   0  0  0  0  0  2  0  0  0  0  0  0
    1.3630    8.2440   -9.5550 N   0  0  0  0  0  1  0  0  0  0  0  0
   -3.1990    3.2210   -7.0840 S   0  0  0  0  0  0  0  0  0  0  0  0
   -1.9550    1.9000   -7.0250 C   0  0  0  0  0  2  0  0  0  0  0  0
   -3.6650   -1.6620   -3.8860 C   0  0  0  0  0  1  0  0  0  0  0  0
   -2.7550   -0.5010   -4.1620 C   0  0  0  0  0  0  0  0  0  0  0  0
   -1.9500    0.0230   -3.1450 C   0  0  0  0  0  3  0  0  0  0  0  0
   -1.1270    1.1200   -3.3890 C   0  0  0  0  0  3  0  0  0  0  0  0
   -1.1120    1.7150   -4.6500 C   0  0  0  0  0  3  0  0  0  0  0  0
   -1.9260    1.2200   -5.6790 C   0  0  0  0  0  0  0  0  0  0  0  0
   -2.7460    0.1090   -5.4230 C   0  0  0  0  0  3  0  0  0  0  0  0
  1  7  1  0  0  0  0
  1 21  1  0  0  0  0
  2  1  2  0  0  0  0
  3  4  2  0  0  0  0
  3  2  1  0  0  0  0
  4  5  1  0  0  0  0
  5  6  2  0  0  0  0
  5  7  1  0  0  0  0
  7  8  1  0  0  0  0
  9 14  1  0  0  0  0
  9  3  1  0  0  0  0
 10  9  2  0  0  0  0
 11 12  2  0  0  0  0
 11 10  1  0  0  0  0
 12 13  1  0  0  0  0
 13 15  1  0  0  0  0
 13 14  2  0  0  0  0
 15 17  1  0  0  0  0
 16 15  1  0  0  0  0
 18 15  1  0  0  0  0
 19  4  1  0  0  0  0
 20 19  1  0  0  0  0
 21 22  1  0  0  0  0
 22 28  1  0  0  0  0
 24 23  1  0  0  0  0
 24 25  1  0  0  0  0
 26 25  2  0  0  0  0
 27 26  1  0  0  0  0
 28 29  1  0  0  0  0
 28 27  2  0  0  0  0
 29 24  2  0  0  0  0
M  END
>  <minimizedAffinity>
50.5802383

$$$$
