
 OpenBabel09132204463D

 31 33  0  0  0  0  0  0  0  0999 V2000
   11.2890    4.2840    2.6850 C   0  0  0  0  0  0  0  0  0  0  0  0
   11.8190    3.5250    3.7790 C   0  0  0  0  0  3  0  0  0  0  0  0
   11.7270    4.1850    4.9820 C   0  0  0  0  0  3  0  0  0  0  0  0
   10.9910    5.7090    4.8110 S   0  0  0  0  0  0  0  0  0  0  0  0
   10.7710    5.5040    3.1130 C   0  0  0  0  0  0  0  0  0  0  0  0
   10.1260    6.5690    2.3300 C   0  0  0  0  0  0  0  0  0  0  0  0
    9.4830    7.5470    2.9910 N   0  0  0  0  0  0  0  0  0  0  0  0
    8.9640    8.4950    2.2060 C   0  0  0  0  0  0  0  0  0  0  0  0
    9.0510    8.5260    0.8300 C   0  0  0  0  0  0  0  0  0  0  0  0
    9.7290    7.4770    0.2340 C   0  0  0  0  0  0  0  0  0  0  0  0
   10.2720    6.4810    0.9940 N   0  0  0  0  0  0  0  0  0  0  0  0
    9.8790    7.4690   -1.2820 C   0  0  0  0  0  0  0  0  0  0  0  0
   11.0830    7.5390   -1.7140 O   0  0  0  0  0  1  0  0  0  0  0  0
    8.8360    7.3830   -1.9990 O   0  0  0  0  0  0  0  0  0  0  0  0
    8.3030    9.5150    2.8480 O   0  0  0  0  0  0  0  0  0  0  0  0
    8.0110   10.0800    2.1070 H   0  0  0  0  0  0  0  0  0  0  0  0
    8.4810    9.5760    0.1570 O   0  0  0  0  0  0  0  0  0  0  0  0
    8.6740    9.3980   -0.8090 H   0  0  0  0  0  0  0  0  0  0  0  0
   10.1610    2.9180   -0.4220 O   0  0  0  0  0  0  0  0  0  0  0  0
   10.4170    2.9400    0.7760 C   0  0  0  0  0  0  0  0  0  0  0  0
   11.2350    3.8750    1.3530 N   0  0  0  0  0  0  0  0  0  0  0  0
   11.8670    4.3520    0.7010 H   0  0  0  0  0  0  0  0  0  0  0  0
    9.8820    1.9940    1.6020 O   0  0  0  0  0  0  0  0  0  0  0  0
    9.5580    0.7230    1.0020 C   0  0  0  0  0  2  0  0  0  0  0  0
    9.1880   -0.3790    2.0060 C   0  0  0  0  0  2  0  0  0  0  0  0
    9.1790   -1.7630    1.3980 C   0  0  0  0  0  0  0  0  0  0  0  0
    8.4330   -2.7930    1.9820 C   0  0  0  0  0  3  0  0  0  0  0  0
    8.3850   -4.0560    1.3920 C   0  0  0  0  0  3  0  0  0  0  0  0
    9.0920   -4.3080    0.2190 C   0  0  0  0  0  3  0  0  0  0  0  0
    9.8480   -3.2970   -0.3670 C   0  0  0  0  0  3  0  0  0  0  0  0
    9.8940   -2.0300    0.2200 C   0  0  0  0  0  3  0  0  0  0  0  0
  1  5  2  0  0  0  0
  1  2  1  0  0  0  0
  2  3  2  0  0  0  0
  4  3  1  0  0  0  0
  5  4  1  0  0  0  0
  6  7  1  0  0  0  0
  6  5  1  0  0  0  0
  8 15  1  0  0  0  0
  8  7  2  0  0  0  0
  9  8  1  0  0  0  0
 10  9  2  0  0  0  0
 10 11  1  0  0  0  0
 11  6  2  0  0  0  0
 12 10  1  0  0  0  0
 13 12  1  0  0  0  0
 14 12  2  0  0  0  0
 16 15  1  0  0  0  0
 17  9  1  0  0  0  0
 18 17  1  0  0  0  0
 19 20  2  0  0  0  0
 20 21  1  0  0  0  0
 20 23  1  0  0  0  0
 21  1  1  0  0  0  0
 22 21  1  0  0  0  0
 24 23  1  0  0  0  0
 24 25  1  0  0  0  0
 26 27  1  0  0  0  0
 26 25  1  0  0  0  0
 28 27  2  0  0  0  0
 29 28  1  0  0  0  0
 30 29  2  0  0  0  0
 30 31  1  0  0  0  0
 31 26  2  0  0  0  0
M  END
>  <minimizedAffinity>
-7.27335787

$$$$
