
 OpenBabel09132204463D

 31 33  0  0  0  0  0  0  0  0999 V2000
    7.5650   -3.3770    4.3680 C   0  0  0  0  0  0  0  0  0  0  0  0
    6.6880   -3.1980    5.4870 C   0  0  0  0  0  3  0  0  0  0  0  0
    5.3880   -3.5450    5.2090 C   0  0  0  0  0  3  0  0  0  0  0  0
    5.2110   -4.1020    3.6120 S   0  0  0  0  0  0  0  0  0  0  0  0
    6.8890   -3.8990    3.2670 C   0  0  0  0  0  0  0  0  0  0  0  0
    7.4040   -4.2460    1.9350 C   0  0  0  0  0  0  0  0  0  0  0  0
    6.6440   -5.0150    1.1370 N   0  0  0  0  0  0  0  0  0  0  0  0
    7.1680   -5.2460   -0.0700 C   0  0  0  0  0  0  0  0  0  0  0  0
    8.3790   -4.7620   -0.5190 C   0  0  0  0  0  0  0  0  0  0  0  0
    9.0960   -3.9820    0.3720 C   0  0  0  0  0  0  0  0  0  0  0  0
    8.6050   -3.7220    1.6190 N   0  0  0  0  0  0  0  0  0  0  0  0
   10.4310   -3.3980   -0.0750 C   0  0  0  0  0  0  0  0  0  0  0  0
   11.2270   -3.0640    0.8710 O   0  0  0  0  0  1  0  0  0  0  0  0
   10.6670   -3.2960   -1.3170 O   0  0  0  0  0  0  0  0  0  0  0  0
    6.4150   -6.0240   -0.9160 O   0  0  0  0  0  0  0  0  0  0  0  0
    6.9700   -6.0660   -1.7200 H   0  0  0  0  0  0  0  0  0  0  0  0
    8.7810   -5.0700   -1.7920 O   0  0  0  0  0  0  0  0  0  0  0  0
    9.6650   -4.6120   -1.9030 H   0  0  0  0  0  0  0  0  0  0  0  0
   10.7320   -1.7340    4.6170 O   0  0  0  0  0  0  0  0  0  0  0  0
    9.5790   -1.9150    4.2420 C   0  0  0  0  0  0  0  0  0  0  0  0
    8.9350   -3.1200    4.3490 N   0  0  0  0  0  0  0  0  0  0  0  0
    9.5550   -3.9290    4.4580 H   0  0  0  0  0  0  0  0  0  0  0  0
    8.8780   -0.8880    3.6800 O   0  0  0  0  0  0  0  0  0  0  0  0
    9.6030   -0.0370    2.7670 C   0  0  0  0  0  2  0  0  0  0  0  0
    9.1340   -0.1250    1.3070 C   0  0  0  0  0  2  0  0  0  0  0  0
    9.9870    0.6820    0.3560 C   0  0  0  0  0  0  0  0  0  0  0  0
   10.4490    1.9540    0.7180 C   0  0  0  0  0  3  0  0  0  0  0  0
   11.2780    2.6770   -0.1400 C   0  0  0  0  0  3  0  0  0  0  0  0
   11.6440    2.1450   -1.3740 C   0  0  0  0  0  3  0  0  0  0  0  0
   11.1830    0.8860   -1.7520 C   0  0  0  0  0  3  0  0  0  0  0  0
   10.3560    0.1590   -0.8930 C   0  0  0  0  0  3  0  0  0  0  0  0
  1  2  1  0  0  0  0
  3  2  2  0  0  0  0
  4  3  1  0  0  0  0
  5  4  1  0  0  0  0
  5  1  2  0  0  0  0
  6  5  1  0  0  0  0
  7  6  1  0  0  0  0
  8  7  2  0  0  0  0
  9  8  1  0  0  0  0
  9 10  2  0  0  0  0
 10 11  1  0  0  0  0
 11  6  2  0  0  0  0
 12 10  1  0  0  0  0
 12 13  1  0  0  0  0
 14 12  2  0  0  0  0
 15  8  1  0  0  0  0
 16 15  1  0  0  0  0
 17  9  1  0  0  0  0
 18 17  1  0  0  0  0
 20 21  1  0  0  0  0
 20 19  2  0  0  0  0
 21  1  1  0  0  0  0
 21 22  1  0  0  0  0
 23 20  1  0  0  0  0
 24 23  1  0  0  0  0
 25 24  1  0  0  0  0
 26 27  1  0  0  0  0
 26 25  1  0  0  0  0
 28 27  2  0  0  0  0
 29 28  1  0  0  0  0
 30 29  2  0  0  0  0
 30 31  1  0  0  0  0
 31 26  2  0  0  0  0
M  END
>  <minimizedAffinity>
-6.21702814

$$$$
