
 OpenBabel09132204463D

 31 33  0  0  0  0  0  0  0  0999 V2000
   10.6600   -0.6250   -0.7470 C   0  0  0  0  0  0  0  0  0  0  0  0
   11.1080   -1.3630   -1.8910 C   0  0  0  0  0  3  0  0  0  0  0  0
   11.7040   -0.5670   -2.8400 C   0  0  0  0  0  3  0  0  0  0  0  0
   11.7470    1.0640   -2.3610 S   0  0  0  0  0  0  0  0  0  0  0  0
   10.9730    0.7290   -0.8570 C   0  0  0  0  0  0  0  0  0  0  0  0
   10.7120    1.8250    0.0870 C   0  0  0  0  0  0  0  0  0  0  0  0
   10.5120    1.5190    1.3810 N   0  0  0  0  0  0  0  0  0  0  0  0
   10.3250    2.5770    2.1760 C   0  0  0  0  0  0  0  0  0  0  0  0
   10.3300    3.8930    1.7650 C   0  0  0  0  0  0  0  0  0  0  0  0
   10.5410    4.1140    0.4140 C   0  0  0  0  0  0  0  0  0  0  0  0
   10.7300    3.0650   -0.4390 N   0  0  0  0  0  0  0  0  0  0  0  0
   10.5810    5.5490   -0.0960 C   0  0  0  0  0  0  0  0  0  0  0  0
   11.7280    6.1170   -0.0420 O   0  0  0  0  0  1  0  0  0  0  0  0
    9.5130    6.0700   -0.5390 O   0  0  0  0  0  0  0  0  0  0  0  0
   10.1230    2.3020    3.5070 O   0  0  0  0  0  0  0  0  0  0  0  0
   10.0110    3.1930    3.8940 H   0  0  0  0  0  0  0  0  0  0  0  0
   10.1400    4.8760    2.7010 O   0  0  0  0  0  0  0  0  0  0  0  0
   10.1940    5.7350    2.1880 H   0  0  0  0  0  0  0  0  0  0  0  0
    9.3180   -2.9170    1.6480 O   0  0  0  0  0  0  0  0  0  0  0  0
    9.4930   -2.4050    0.5480 C   0  0  0  0  0  0  0  0  0  0  0  0
   10.0300   -1.1560    0.3780 N   0  0  0  0  0  0  0  0  0  0  0  0
    9.9810   -0.5520    1.2050 H   0  0  0  0  0  0  0  0  0  0  0  0
    9.1380   -3.0840   -0.5810 O   0  0  0  0  0  0  0  0  0  0  0  0
    9.0660   -4.5210   -0.4730 C   0  0  0  0  0  2  0  0  0  0  0  0
    7.8270   -5.1470   -1.1320 C   0  0  0  0  0  2  0  0  0  0  0  0
    6.7290   -5.4760   -0.1480 C   0  0  0  0  0  0  0  0  0  0  0  0
    6.9820   -5.4720    1.2290 C   0  0  0  0  0  3  0  0  0  0  0  0
    5.9550   -5.7260    2.1390 C   0  0  0  0  0  3  0  0  0  0  0  0
    4.6680   -5.9990    1.6840 C   0  0  0  0  0  3  0  0  0  0  0  0
    4.4040   -6.0180    0.3170 C   0  0  0  0  0  3  0  0  0  0  0  0
    5.4290   -5.7600   -0.5960 C   0  0  0  0  0  3  0  0  0  0  0  0
  1 21  1  0  0  0  0
  2  1  1  0  0  0  0
  3  4  1  0  0  0  0
  3  2  2  0  0  0  0
  4  5  1  0  0  0  0
  5  1  2  0  0  0  0
  5  6  1  0  0  0  0
  6  7  1  0  0  0  0
  7  8  2  0  0  0  0
  8 15  1  0  0  0  0
  9  8  1  0  0  0  0
  9 17  1  0  0  0  0
 10  9  2  0  0  0  0
 11  6  2  0  0  0  0
 11 10  1  0  0  0  0
 12 13  1  0  0  0  0
 12 10  1  0  0  0  0
 14 12  2  0  0  0  0
 15 16  1  0  0  0  0
 18 17  1  0  0  0  0
 20 19  2  0  0  0  0
 21 20  1  0  0  0  0
 21 22  1  0  0  0  0
 23 24  1  0  0  0  0
 23 20  1  0  0  0  0
 25 24  1  0  0  0  0
 25 26  1  0  0  0  0
 26 27  1  0  0  0  0
 27 28  2  0  0  0  0
 29 28  1  0  0  0  0
 30 29  2  0  0  0  0
 31 26  2  0  0  0  0
 31 30  1  0  0  0  0
M  END
>  <minimizedAffinity>
-6.11375666

$$$$
