
 OpenBabel09132204463D

 31 33  0  0  0  0  0  0  0  0999 V2000
    9.8690    1.5070    2.2270 C   0  0  0  0  0  0  0  0  0  0  0  0
   10.2070    2.5920    3.1000 C   0  0  0  0  0  3  0  0  0  0  0  0
   10.2950    2.2090    4.4180 C   0  0  0  0  0  3  0  0  0  0  0  0
    9.9890    0.5480    4.6150 S   0  0  0  0  0  0  0  0  0  0  0  0
    9.7450    0.3080    2.9250 C   0  0  0  0  0  0  0  0  0  0  0  0
    9.4270   -1.0360    2.4190 C   0  0  0  0  0  0  0  0  0  0  0  0
    8.6490   -1.8330    3.1720 N   0  0  0  0  0  0  0  0  0  0  0  0
    8.3750   -3.0180    2.6200 C   0  0  0  0  0  0  0  0  0  0  0  0
    8.8190   -3.4440    1.3850 C   0  0  0  0  0  0  0  0  0  0  0  0
    9.6170   -2.5580    0.6820 C   0  0  0  0  0  0  0  0  0  0  0  0
    9.9300   -1.3380    1.2070 N   0  0  0  0  0  0  0  0  0  0  0  0
   10.1180   -2.9630   -0.7000 C   0  0  0  0  0  0  0  0  0  0  0  0
   10.5670   -2.0050   -1.4210 O   0  0  0  0  0  0  0  0  0  0  0  0
   10.0720   -4.1860   -1.0320 O   0  0  0  0  0  1  0  0  0  0  0  0
    7.5770   -3.8580    3.3590 O   0  0  0  0  0  0  0  0  0  0  0  0
    7.5060   -4.6460    2.7850 H   0  0  0  0  0  0  0  0  0  0  0  0
    8.4410   -4.6840    0.9410 O   0  0  0  0  0  0  0  0  0  0  0  0
    8.8620   -4.7740    0.0360 H   0  0  0  0  0  0  0  0  0  0  0  0
   10.5660    1.7660   -1.2720 O   0  0  0  0  0  0  0  0  0  0  0  0
   10.5940    2.0810   -0.0880 C   0  0  0  0  0  0  0  0  0  0  0  0
    9.7190    1.5850    0.8420 N   0  0  0  0  0  0  0  0  0  0  0  0
    8.8540    1.1950    0.4530 H   0  0  0  0  0  0  0  0  0  0  0  0
   11.5270    2.9730    0.3560 O   0  0  0  0  0  0  0  0  0  0  0  0
   11.3550    4.3450   -0.0570 C   0  0  0  0  0  2  0  0  0  0  0  0
    9.9100    4.8590    0.0310 C   0  0  0  0  0  2  0  0  0  0  0  0
    9.7990    6.2210    0.6770 C   0  0  0  0  0  0  0  0  0  0  0  0
    9.2790    7.3080   -0.0360 C   0  0  0  0  0  3  0  0  0  0  0  0
    9.1300    8.5520    0.5770 C   0  0  0  0  0  3  0  0  0  0  0  0
    9.5120    8.7280    1.9050 C   0  0  0  0  0  3  0  0  0  0  0  0
   10.0410    7.6590    2.6230 C   0  0  0  0  0  3  0  0  0  0  0  0
   10.1870    6.4120    2.0120 C   0  0  0  0  0  3  0  0  0  0  0  0
  1  5  2  0  0  0  0
  1  2  1  0  0  0  0
  2  3  2  0  0  0  0
  3  4  1  0  0  0  0
  5  4  1  0  0  0  0
  6  5  1  0  0  0  0
  6  7  1  0  0  0  0
  8  7  2  0  0  0  0
  8 15  1  0  0  0  0
  9  8  1  0  0  0  0
 10 11  1  0  0  0  0
 10  9  2  0  0  0  0
 11  6  2  0  0  0  0
 12 10  1  0  0  0  0
 13 12  2  0  0  0  0
 14 12  1  0  0  0  0
 16 15  1  0  0  0  0
 17  9  1  0  0  0  0
 18 17  1  0  0  0  0
 19 20  2  0  0  0  0
 20 23  1  0  0  0  0
 20 21  1  0  0  0  0
 21  1  1  0  0  0  0
 22 21  1  0  0  0  0
 24 25  1  0  0  0  0
 24 23  1  0  0  0  0
 25 26  1  0  0  0  0
 26 31  1  0  0  0  0
 27 28  1  0  0  0  0
 27 26  2  0  0  0  0
 28 29  2  0  0  0  0
 29 30  1  0  0  0  0
 31 30  2  0  0  0  0
M  END
>  <minimizedAffinity>
-6.38712692

$$$$
