
 OpenBabel09132204463D

 31 33  0  0  0  0  0  0  0  0999 V2000
   10.9880    3.3310    1.6720 C   0  0  0  0  0  0  0  0  0  0  0  0
   11.4790    2.3030    0.8040 C   0  0  0  0  0  3  0  0  0  0  0  0
   11.8190    2.7730   -0.4420 C   0  0  0  0  0  3  0  0  0  0  0  0
   11.5690    4.4500   -0.5750 S   0  0  0  0  0  0  0  0  0  0  0  0
   11.0080    4.5780    1.0510 C   0  0  0  0  0  0  0  0  0  0  0  0
   10.6090    5.8910    1.5810 C   0  0  0  0  0  0  0  0  0  0  0  0
   10.9980    6.2210    2.8250 N   0  0  0  0  0  0  0  0  0  0  0  0
   10.6300    7.4460    3.2110 C   0  0  0  0  0  0  0  0  0  0  0  0
    9.9160    8.3420    2.4440 C   0  0  0  0  0  0  0  0  0  0  0  0
    9.5560    7.9160    1.1770 C   0  0  0  0  0  0  0  0  0  0  0  0
    9.9030    6.6700    0.7400 N   0  0  0  0  0  0  0  0  0  0  0  0
    8.7860    8.8720    0.2740 C   0  0  0  0  0  0  0  0  0  0  0  0
    9.1110    8.8350   -0.9650 O   0  0  0  0  0  0  0  0  0  0  0  0
    7.8920    9.6100    0.7870 O   0  0  0  0  0  1  0  0  0  0  0  0
   11.0150    7.8210    4.4760 O   0  0  0  0  0  0  0  0  0  0  0  0
   10.6510    8.7250    4.5510 H   0  0  0  0  0  0  0  0  0  0  0  0
    9.6240    9.5740    2.9700 O   0  0  0  0  0  0  0  0  0  0  0  0
    9.1210   10.0510    2.2480 H   0  0  0  0  0  0  0  0  0  0  0  0
    9.9400    1.8560    4.7570 O   0  0  0  0  0  0  0  0  0  0  0  0
    9.9190    2.0990    3.5560 C   0  0  0  0  0  0  0  0  0  0  0  0
   10.5740    3.1620    2.9940 N   0  0  0  0  0  0  0  0  0  0  0  0
   10.8120    3.9150    3.6480 H   0  0  0  0  0  0  0  0  0  0  0  0
    9.2110    1.2930    2.7130 O   0  0  0  0  0  0  0  0  0  0  0  0
    9.5190   -0.1160    2.7570 C   0  0  0  0  0  2  0  0  0  0  0  0
    8.7630   -0.9660    1.7240 C   0  0  0  0  0  2  0  0  0  0  0  0
    9.6660   -1.5710    0.6740 C   0  0  0  0  0  0  0  0  0  0  0  0
   10.0780   -0.8170   -0.4320 C   0  0  0  0  0  3  0  0  0  0  0  0
   10.9510   -1.3600   -1.3740 C   0  0  0  0  0  3  0  0  0  0  0  0
   11.4120   -2.6660   -1.2310 C   0  0  0  0  0  3  0  0  0  0  0  0
   11.0010   -3.4320   -0.1430 C   0  0  0  0  0  3  0  0  0  0  0  0
   10.1300   -2.8890    0.8040 C   0  0  0  0  0  3  0  0  0  0  0  0
  1 21  1  0  0  0  0
  2  1  1  0  0  0  0
  3  2  2  0  0  0  0
  4  3  1  0  0  0  0
  4  5  1  0  0  0  0
  5  6  1  0  0  0  0
  5  1  2  0  0  0  0
  6  7  1  0  0  0  0
  7  8  2  0  0  0  0
  8 15  1  0  0  0  0
  9 17  1  0  0  0  0
  9  8  1  0  0  0  0
 10  9  2  0  0  0  0
 11 10  1  0  0  0  0
 11  6  2  0  0  0  0
 12 14  1  0  0  0  0
 12 10  1  0  0  0  0
 13 12  2  0  0  0  0
 15 16  1  0  0  0  0
 18 17  1  0  0  0  0
 20 19  2  0  0  0  0
 21 20  1  0  0  0  0
 21 22  1  0  0  0  0
 23 24  1  0  0  0  0
 23 20  1  0  0  0  0
 25 24  1  0  0  0  0
 26 31  1  0  0  0  0
 26 25  1  0  0  0  0
 27 26  2  0  0  0  0
 28 29  2  0  0  0  0
 28 27  1  0  0  0  0
 29 30  1  0  0  0  0
 30 31  2  0  0  0  0
M  END
>  <minimizedAffinity>
-6.53042412

$$$$
