
 OpenBabel09132200253D

 31 33  0  0  0  0  0  0  0  0999 V2000
   11.2890    4.2840    2.6850 C   0  0  0  0  0  0  0  0  0  0  0  0
   11.8190    3.5250    3.7790 C   0  0  0  0  0  3  0  0  0  0  0  0
   11.7270    4.1850    4.9820 C   0  0  0  0  0  3  0  0  0  0  0  0
   10.9910    5.7090    4.8110 S   0  0  0  0  0  0  0  0  0  0  0  0
   10.7710    5.5040    3.1130 C   0  0  0  0  0  0  0  0  0  0  0  0
   10.1260    6.5690    2.3300 C   0  0  0  0  0  0  0  0  0  0  0  0
    9.4830    7.5470    2.9910 N   0  0  0  0  0  0  0  0  0  0  0  0
    8.9640    8.4950    2.2060 C   0  0  0  0  0  0  0  0  0  0  0  0
    9.0510    8.5260    0.8300 C   0  0  0  0  0  0  0  0  0  0  0  0
    9.7290    7.4770    0.2340 C   0  0  0  0  0  0  0  0  0  0  0  0
   10.2720    6.4810    0.9940 N   0  0  0  0  0  0  0  0  0  0  0  0
    9.8790    7.4690   -1.2820 C   0  0  0  0  0  0  0  0  0  0  0  0
   11.0830    7.5390   -1.7140 O   0  0  0  0  0  1  0  0  0  0  0  0
    8.8360    7.3830   -1.9990 O   0  0  0  0  0  0  0  0  0  0  0  0
    8.3030    9.5150    2.8480 O   0  0  0  0  0  0  0  0  0  0  0  0
    8.0110   10.0800    2.1070 H   0  0  0  0  0  0  0  0  0  0  0  0
    8.4810    9.5760    0.1570 O   0  0  0  0  0  0  0  0  0  0  0  0
    8.6740    9.3980   -0.8090 H   0  0  0  0  0  0  0  0  0  0  0  0
   10.1610    2.9180   -0.4220 O   0  0  0  0  0  0  0  0  0  0  0  0
   10.4170    2.9400    0.7760 C   0  0  0  0  0  0  0  0  0  0  0  0
   11.2350    3.8750    1.3530 N   0  0  0  0  0  0  0  0  0  0  0  0
   11.8670    4.3520    0.7010 H   0  0  0  0  0  0  0  0  0  0  0  0
    9.8820    1.9940    1.6020 O   0  0  0  0  0  0  0  0  0  0  0  0
    9.5580    0.7230    1.0020 C   0  0  0  0  0  2  0  0  0  0  0  0
    9.1880   -0.3790    2.0060 C   0  0  0  0  0  2  0  0  0  0  0  0
    9.1790   -1.7630    1.3980 C   0  0  0  0  0  0  0  0  0  0  0  0
    8.4330   -2.7930    1.9820 C   0  0  0  0  0  3  0  0  0  0  0  0
    8.3850   -4.0560    1.3920 C   0  0  0  0  0  3  0  0  0  0  0  0
    9.0920   -4.3080    0.2190 C   0  0  0  0  0  3  0  0  0  0  0  0
    9.8480   -3.2970   -0.3670 C   0  0  0  0  0  3  0  0  0  0  0  0
    9.8940   -2.0300    0.2200 C   0  0  0  0  0  3  0  0  0  0  0  0
  1  5  2  0  0  0  0
  1  2  1  0  0  0  0
  2  3  2  0  0  0  0
  4  3  1  0  0  0  0
  5  4  1  0  0  0  0
  6  7  1  0  0  0  0
  6  5  1  0  0  0  0
  8 15  1  0  0  0  0
  8  7  2  0  0  0  0
  9  8  1  0  0  0  0
 10  9  2  0  0  0  0
 10 11  1  0  0  0  0
 11  6  2  0  0  0  0
 12 10  1  0  0  0  0
 13 12  1  0  0  0  0
 14 12  2  0  0  0  0
 16 15  1  0  0  0  0
 17  9  1  0  0  0  0
 18 17  1  0  0  0  0
 19 20  2  0  0  0  0
 20 21  1  0  0  0  0
 20 23  1  0  0  0  0
 21  1  1  0  0  0  0
 22 21  1  0  0  0  0
 24 23  1  0  0  0  0
 24 25  1  0  0  0  0
 26 27  1  0  0  0  0
 26 25  1  0  0  0  0
 28 27  2  0  0  0  0
 29 28  1  0  0  0  0
 30 29  2  0  0  0  0
 30 31  1  0  0  0  0
 31 26  2  0  0  0  0
M  END
>  <minimizedAffinity>
-7.27335787

$$$$

 OpenBabel09132200253D

 31 33  0  0  0  0  0  0  0  0999 V2000
    9.5420   -0.4510    3.2110 C   0  0  0  0  0  0  0  0  0  0  0  0
    9.8660   -0.0780    4.5560 C   0  0  0  0  0  3  0  0  0  0  0  0
   10.1330   -1.1600    5.3620 C   0  0  0  0  0  3  0  0  0  0  0  0
   10.0140   -2.6260    4.5090 S   0  0  0  0  0  0  0  0  0  0  0  0
    9.6120   -1.8320    3.0320 C   0  0  0  0  0  0  0  0  0  0  0  0
    9.3750   -2.6270    1.8190 C   0  0  0  0  0  0  0  0  0  0  0  0
   10.1170   -2.3660    0.7290 N   0  0  0  0  0  0  0  0  0  0  0  0
    9.8660   -3.1630   -0.3130 C   0  0  0  0  0  0  0  0  0  0  0  0
    8.9410   -4.1860   -0.3300 C   0  0  0  0  0  0  0  0  0  0  0  0
    8.2200   -4.3810    0.8350 C   0  0  0  0  0  0  0  0  0  0  0  0
    8.4360   -3.5880    1.9260 N   0  0  0  0  0  0  0  0  0  0  0  0
    7.2000   -5.5110    0.8860 C   0  0  0  0  0  0  0  0  0  0  0  0
    7.0040   -6.0220    2.0440 O   0  0  0  0  0  1  0  0  0  0  0  0
    6.6170   -5.8570   -0.1870 O   0  0  0  0  0  0  0  0  0  0  0  0
   10.6110   -2.9290   -1.4440 O   0  0  0  0  0  0  0  0  0  0  0  0
   10.2740   -3.6050   -2.0650 H   0  0  0  0  0  0  0  0  0  0  0  0
    8.8050   -4.9330   -1.4710 O   0  0  0  0  0  0  0  0  0  0  0  0
    8.1000   -5.6100   -1.2540 H   0  0  0  0  0  0  0  0  0  0  0  0
    9.7960    2.0610    0.6780 O   0  0  0  0  0  0  0  0  0  0  0  0
    9.8760    1.5760    1.8010 C   0  0  0  0  0  0  0  0  0  0  0  0
    9.2350    0.4220    2.1680 N   0  0  0  0  0  0  0  0  0  0  0  0
    8.4440    0.1620    1.5700 H   0  0  0  0  0  0  0  0  0  0  0  0
   10.6270    2.1960    2.7570 O   0  0  0  0  0  0  0  0  0  0  0  0
   11.3350    3.3860    2.3490 C   0  0  0  0  0  2  0  0  0  0  0  0
   10.8590    4.6750    3.0340 C   0  0  0  0  0  2  0  0  0  0  0  0
   10.3620    5.7200    2.0620 C   0  0  0  0  0  0  0  0  0  0  0  0
   10.0750    5.3790    0.7350 C   0  0  0  0  0  3  0  0  0  0  0  0
    9.5680    6.3320   -0.1480 C   0  0  0  0  0  3  0  0  0  0  0  0
    9.3560    7.6410    0.2800 C   0  0  0  0  0  3  0  0  0  0  0  0
    9.6490    7.9980    1.5930 C   0  0  0  0  0  3  0  0  0  0  0  0
   10.1520    7.0430    2.4800 C   0  0  0  0  0  3  0  0  0  0  0  0
  1  2  1  0  0  0  0
  2  3  2  0  0  0  0
  4  3  1  0  0  0  0
  5  1  2  0  0  0  0
  5  4  1  0  0  0  0
  6 11  2  0  0  0  0
  6  5  1  0  0  0  0
  7  6  1  0  0  0  0
  8  7  2  0  0  0  0
  9  8  1  0  0  0  0
  9 10  2  0  0  0  0
 10 12  1  0  0  0  0
 10 11  1  0  0  0  0
 12 13  1  0  0  0  0
 14 12  2  0  0  0  0
 15  8  1  0  0  0  0
 16 15  1  0  0  0  0
 17 18  1  0  0  0  0
 17  9  1  0  0  0  0
 19 20  2  0  0  0  0
 20 21  1  0  0  0  0
 20 23  1  0  0  0  0
 21  1  1  0  0  0  0
 22 21  1  0  0  0  0
 24 23  1  0  0  0  0
 24 25  1  0  0  0  0
 26 31  1  0  0  0  0
 26 25  1  0  0  0  0
 27 26  2  0  0  0  0
 28 29  2  0  0  0  0
 28 27  1  0  0  0  0
 29 30  1  0  0  0  0
 30 31  2  0  0  0  0
M  END
>  <minimizedAffinity>
-6.88584518

$$$$

 OpenBabel09132200253D

 31 33  0  0  0  0  0  0  0  0999 V2000
   11.1900    3.6830    2.8680 C   0  0  0  0  0  0  0  0  0  0  0  0
   11.5460    3.0190    4.0870 C   0  0  0  0  0  3  0  0  0  0  0  0
   11.3430    3.8000    5.2000 C   0  0  0  0  0  3  0  0  0  0  0  0
   10.7090    5.3250    4.7950 S   0  0  0  0  0  0  0  0  0  0  0  0
   10.6850    4.9590    3.1090 C   0  0  0  0  0  0  0  0  0  0  0  0
   10.1920    5.9620    2.1540 C   0  0  0  0  0  0  0  0  0  0  0  0
    9.7800    5.5440    0.9460 N   0  0  0  0  0  0  0  0  0  0  0  0
    9.3080    6.5140    0.1570 C   0  0  0  0  0  0  0  0  0  0  0  0
    9.2230    7.8470    0.4980 C   0  0  0  0  0  0  0  0  0  0  0  0
    9.6740    8.1870    1.7620 C   0  0  0  0  0  0  0  0  0  0  0  0
   10.1700    7.2330    2.6020 N   0  0  0  0  0  0  0  0  0  0  0  0
    9.5820    9.6430    2.2050 C   0  0  0  0  0  0  0  0  0  0  0  0
   10.2390   10.4760    1.4870 O   0  0  0  0  0  0  0  0  0  0  0  0
    8.8750    9.9290    3.2180 O   0  0  0  0  0  1  0  0  0  0  0  0
    8.8720    6.1220   -1.0860 O   0  0  0  0  0  0  0  0  0  0  0  0
    8.5790    6.9650   -1.4850 H   0  0  0  0  0  0  0  0  0  0  0  0
    8.7000    8.7280   -0.4120 O   0  0  0  0  0  0  0  0  0  0  0  0
    8.7250    9.6190    0.0460 H   0  0  0  0  0  0  0  0  0  0  0  0
   10.3340    2.3850   -0.3530 O   0  0  0  0  0  0  0  0  0  0  0  0
   10.3190    2.4770    0.8690 C   0  0  0  0  0  0  0  0  0  0  0  0
   11.2770    3.1450    1.5840 N   0  0  0  0  0  0  0  0  0  0  0  0
   12.1620    3.2880    1.0870 H   0  0  0  0  0  0  0  0  0  0  0  0
    9.3150    1.8880    1.5820 O   0  0  0  0  0  0  0  0  0  0  0  0
    9.5760    0.5620    2.0890 C   0  0  0  0  0  2  0  0  0  0  0  0
    8.7990   -0.5560    1.3780 C   0  0  0  0  0  2  0  0  0  0  0  0
    9.6760   -1.4420    0.5230 C   0  0  0  0  0  0  0  0  0  0  0  0
   10.2840   -0.9390   -0.6340 C   0  0  0  0  0  3  0  0  0  0  0  0
   11.1340   -1.7430   -1.3940 C   0  0  0  0  0  3  0  0  0  0  0  0
   11.3750   -3.0620   -1.0150 C   0  0  0  0  0  3  0  0  0  0  0  0
   10.7680   -3.5790    0.1260 C   0  0  0  0  0  3  0  0  0  0  0  0
    9.9200   -2.7740    0.8910 C   0  0  0  0  0  3  0  0  0  0  0  0
  1  5  2  0  0  0  0
  1  2  1  0  0  0  0
  2  3  2  0  0  0  0
  4  3  1  0  0  0  0
  5  4  1  0  0  0  0
  6 11  2  0  0  0  0
  6  5  1  0  0  0  0
  7  6  1  0  0  0  0
  8  9  1  0  0  0  0
  8  7  2  0  0  0  0
  9 10  2  0  0  0  0
 10 12  1  0  0  0  0
 10 11  1  0  0  0  0
 12 14  1  0  0  0  0
 13 12  2  0  0  0  0
 15  8  1  0  0  0  0
 16 15  1  0  0  0  0
 17 18  1  0  0  0  0
 17  9  1  0  0  0  0
 19 20  2  0  0  0  0
 20 23  1  0  0  0  0
 20 21  1  0  0  0  0
 21  1  1  0  0  0  0
 22 21  1  0  0  0  0
 23 24  1  0  0  0  0
 25 24  1  0  0  0  0
 26 31  1  0  0  0  0
 26 25  1  0  0  0  0
 27 26  2  0  0  0  0
 28 29  2  0  0  0  0
 28 27  1  0  0  0  0
 29 30  1  0  0  0  0
 30 31  2  0  0  0  0
M  END
>  <minimizedAffinity>
-6.83149338

$$$$

 OpenBabel09132200253D

 31 33  0  0  0  0  0  0  0  0999 V2000
    9.9740    0.3570    0.0000 C   0  0  0  0  0  0  0  0  0  0  0  0
   10.3100   -0.4860   -1.1100 C   0  0  0  0  0  3  0  0  0  0  0  0
   11.1540    0.1240   -2.0070 C   0  0  0  0  0  3  0  0  0  0  0  0
   11.5620    1.7010   -1.5180 S   0  0  0  0  0  0  0  0  0  0  0  0
   10.6180    1.5890   -0.0800 C   0  0  0  0  0  0  0  0  0  0  0  0
   10.5660    2.7300    0.8470 C   0  0  0  0  0  0  0  0  0  0  0  0
   10.4700    3.9670    0.3300 N   0  0  0  0  0  0  0  0  0  0  0  0
   10.3840    4.9410    1.2410 C   0  0  0  0  0  0  0  0  0  0  0  0
   10.3850    4.7550    2.6080 C   0  0  0  0  0  0  0  0  0  0  0  0
   10.4900    3.4480    3.0500 C   0  0  0  0  0  0  0  0  0  0  0  0
   10.5860    2.4190    2.1570 N   0  0  0  0  0  0  0  0  0  0  0  0
   10.4720    3.1780    4.5490 C   0  0  0  0  0  0  0  0  0  0  0  0
   11.5910    2.8100    5.0530 O   0  0  0  0  0  0  0  0  0  0  0  0
    9.3880    3.3410    5.1860 O   0  0  0  0  0  1  0  0  0  0  0  0
   10.2790    6.2200    0.7490 O   0  0  0  0  0  0  0  0  0  0  0  0
   10.2320    6.7590    1.5630 H   0  0  0  0  0  0  0  0  0  0  0  0
   10.2740    5.8530    3.4220 O   0  0  0  0  0  0  0  0  0  0  0  0
   10.2850    5.4860    4.3530 H   0  0  0  0  0  0  0  0  0  0  0  0
    8.7740   -0.9900    3.0890 O   0  0  0  0  0  0  0  0  0  0  0  0
    9.3060   -0.9950    1.9850 C   0  0  0  0  0  0  0  0  0  0  0  0
    9.1480    0.0130    1.0700 N   0  0  0  0  0  0  0  0  0  0  0  0
    8.3250    0.6050    1.2230 H   0  0  0  0  0  0  0  0  0  0  0  0
   10.0940   -2.0460    1.6150 O   0  0  0  0  0  0  0  0  0  0  0  0
    9.5600   -3.3660    1.8500 C   0  0  0  0  0  2  0  0  0  0  0  0
    9.5560   -4.2790    0.6150 C   0  0  0  0  0  2  0  0  0  0  0  0
    8.1940   -4.8590    0.3060 C   0  0  0  0  0  0  0  0  0  0  0  0
    7.7510   -4.9700   -1.0180 C   0  0  0  0  0  3  0  0  0  0  0  0
    6.5160   -5.5510   -1.3050 C   0  0  0  0  0  3  0  0  0  0  0  0
    5.7040   -6.0160   -0.2730 C   0  0  0  0  0  3  0  0  0  0  0  0
    6.1270   -5.9020    1.0490 C   0  0  0  0  0  3  0  0  0  0  0  0
    7.3650   -5.3240    1.3380 C   0  0  0  0  0  3  0  0  0  0  0  0
  1 21  1  0  0  0  0
  2  1  1  0  0  0  0
  3  4  1  0  0  0  0
  3  2  2  0  0  0  0
  4  5  1  0  0  0  0
  5  1  2  0  0  0  0
  5  6  1  0  0  0  0
  6 11  2  0  0  0  0
  7  6  1  0  0  0  0
  7  8  2  0  0  0  0
  8  9  1  0  0  0  0
  9 10  2  0  0  0  0
  9 17  1  0  0  0  0
 10 12  1  0  0  0  0
 11 10  1  0  0  0  0
 12 13  2  0  0  0  0
 12 14  1  0  0  0  0
 15  8  1  0  0  0  0
 15 16  1  0  0  0  0
 17 18  1  0  0  0  0
 20 19  2  0  0  0  0
 21 22  1  0  0  0  0
 21 20  1  0  0  0  0
 23 24  1  0  0  0  0
 23 20  1  0  0  0  0
 25 24  1  0  0  0  0
 26 25  1  0  0  0  0
 26 31  1  0  0  0  0
 27 26  2  0  0  0  0
 28 27  1  0  0  0  0
 28 29  2  0  0  0  0
 29 30  1  0  0  0  0
 30 31  2  0  0  0  0
M  END
>  <minimizedAffinity>
-6.53345156

$$$$

 OpenBabel09132200253D

 31 33  0  0  0  0  0  0  0  0999 V2000
   10.9880    3.3310    1.6720 C   0  0  0  0  0  0  0  0  0  0  0  0
   11.4790    2.3030    0.8040 C   0  0  0  0  0  3  0  0  0  0  0  0
   11.8190    2.7730   -0.4420 C   0  0  0  0  0  3  0  0  0  0  0  0
   11.5690    4.4500   -0.5750 S   0  0  0  0  0  0  0  0  0  0  0  0
   11.0080    4.5780    1.0510 C   0  0  0  0  0  0  0  0  0  0  0  0
   10.6090    5.8910    1.5810 C   0  0  0  0  0  0  0  0  0  0  0  0
   10.9980    6.2210    2.8250 N   0  0  0  0  0  0  0  0  0  0  0  0
   10.6300    7.4460    3.2110 C   0  0  0  0  0  0  0  0  0  0  0  0
    9.9160    8.3420    2.4440 C   0  0  0  0  0  0  0  0  0  0  0  0
    9.5560    7.9160    1.1770 C   0  0  0  0  0  0  0  0  0  0  0  0
    9.9030    6.6700    0.7400 N   0  0  0  0  0  0  0  0  0  0  0  0
    8.7860    8.8720    0.2740 C   0  0  0  0  0  0  0  0  0  0  0  0
    9.1110    8.8350   -0.9650 O   0  0  0  0  0  0  0  0  0  0  0  0
    7.8920    9.6100    0.7870 O   0  0  0  0  0  1  0  0  0  0  0  0
   11.0150    7.8210    4.4760 O   0  0  0  0  0  0  0  0  0  0  0  0
   10.6510    8.7250    4.5510 H   0  0  0  0  0  0  0  0  0  0  0  0
    9.6240    9.5740    2.9700 O   0  0  0  0  0  0  0  0  0  0  0  0
    9.1210   10.0510    2.2480 H   0  0  0  0  0  0  0  0  0  0  0  0
    9.9400    1.8560    4.7570 O   0  0  0  0  0  0  0  0  0  0  0  0
    9.9190    2.0990    3.5560 C   0  0  0  0  0  0  0  0  0  0  0  0
   10.5740    3.1620    2.9940 N   0  0  0  0  0  0  0  0  0  0  0  0
   10.8120    3.9150    3.6480 H   0  0  0  0  0  0  0  0  0  0  0  0
    9.2110    1.2930    2.7130 O   0  0  0  0  0  0  0  0  0  0  0  0
    9.5190   -0.1160    2.7570 C   0  0  0  0  0  2  0  0  0  0  0  0
    8.7630   -0.9660    1.7240 C   0  0  0  0  0  2  0  0  0  0  0  0
    9.6660   -1.5710    0.6740 C   0  0  0  0  0  0  0  0  0  0  0  0
   10.0780   -0.8170   -0.4320 C   0  0  0  0  0  3  0  0  0  0  0  0
   10.9510   -1.3600   -1.3740 C   0  0  0  0  0  3  0  0  0  0  0  0
   11.4120   -2.6660   -1.2310 C   0  0  0  0  0  3  0  0  0  0  0  0
   11.0010   -3.4320   -0.1430 C   0  0  0  0  0  3  0  0  0  0  0  0
   10.1300   -2.8890    0.8040 C   0  0  0  0  0  3  0  0  0  0  0  0
  1 21  1  0  0  0  0
  2  1  1  0  0  0  0
  3  2  2  0  0  0  0
  4  3  1  0  0  0  0
  4  5  1  0  0  0  0
  5  6  1  0  0  0  0
  5  1  2  0  0  0  0
  6  7  1  0  0  0  0
  7  8  2  0  0  0  0
  8 15  1  0  0  0  0
  9 17  1  0  0  0  0
  9  8  1  0  0  0  0
 10  9  2  0  0  0  0
 11 10  1  0  0  0  0
 11  6  2  0  0  0  0
 12 14  1  0  0  0  0
 12 10  1  0  0  0  0
 13 12  2  0  0  0  0
 15 16  1  0  0  0  0
 18 17  1  0  0  0  0
 20 19  2  0  0  0  0
 21 20  1  0  0  0  0
 21 22  1  0  0  0  0
 23 24  1  0  0  0  0
 23 20  1  0  0  0  0
 25 24  1  0  0  0  0
 26 31  1  0  0  0  0
 26 25  1  0  0  0  0
 27 26  2  0  0  0  0
 28 29  2  0  0  0  0
 28 27  1  0  0  0  0
 29 30  1  0  0  0  0
 30 31  2  0  0  0  0
M  END
>  <minimizedAffinity>
-6.53042412

$$$$

 OpenBabel09132200253D

 31 33  0  0  0  0  0  0  0  0999 V2000
    9.7480    0.2330    0.7460 C   0  0  0  0  0  0  0  0  0  0  0  0
    9.9090   -0.8420   -0.1870 C   0  0  0  0  0  3  0  0  0  0  0  0
   10.5120   -0.4470   -1.3590 C   0  0  0  0  0  3  0  0  0  0  0  0
   10.9030    1.2070   -1.3410 S   0  0  0  0  0  0  0  0  0  0  0  0
   10.2790    1.4230    0.2520 C   0  0  0  0  0  0  0  0  0  0  0  0
   10.3380    2.7500    0.8830 C   0  0  0  0  0  0  0  0  0  0  0  0
   10.6490    2.8220    2.1890 N   0  0  0  0  0  0  0  0  0  0  0  0
   10.7230    4.0650    2.6710 C   0  0  0  0  0  0  0  0  0  0  0  0
   10.5130    5.2170    1.9410 C   0  0  0  0  0  0  0  0  0  0  0  0
   10.1950    5.0470    0.6050 C   0  0  0  0  0  0  0  0  0  0  0  0
   10.1020    3.7950    0.0680 N   0  0  0  0  0  0  0  0  0  0  0  0
    9.9760    6.2830   -0.2590 C   0  0  0  0  0  0  0  0  0  0  0  0
    8.7650    6.4890   -0.6230 O   0  0  0  0  0  0  0  0  0  0  0  0
   10.9730    7.0140   -0.5430 O   0  0  0  0  0  1  0  0  0  0  0  0
   11.0440    4.1780    4.0030 O   0  0  0  0  0  0  0  0  0  0  0  0
   11.0430    5.1460    4.1420 H   0  0  0  0  0  0  0  0  0  0  0  0
   10.6410    6.4280    2.5700 O   0  0  0  0  0  0  0  0  0  0  0  0
   10.4590    7.1090    1.8590 H   0  0  0  0  0  0  0  0  0  0  0  0
    9.2390   -0.5020    4.2090 O   0  0  0  0  0  0  0  0  0  0  0  0
    9.4940   -0.7270    3.0320 C   0  0  0  0  0  0  0  0  0  0  0  0
    9.1810    0.1390    2.0170 N   0  0  0  0  0  0  0  0  0  0  0  0
    8.4520    0.8220    2.2460 H   0  0  0  0  0  0  0  0  0  0  0  0
   10.1110   -1.8930    2.6810 O   0  0  0  0  0  0  0  0  0  0  0  0
    9.5650   -3.1050    3.2420 C   0  0  0  0  0  2  0  0  0  0  0  0
    8.0860   -3.3510    2.9080 C   0  0  0  0  0  2  0  0  0  0  0  0
    7.8850   -4.1680    1.6520 C   0  0  0  0  0  0  0  0  0  0  0  0
    6.8840   -5.1450    1.5910 C   0  0  0  0  0  3  0  0  0  0  0  0
    6.6660   -5.8630    0.4150 C   0  0  0  0  0  3  0  0  0  0  0  0
    7.4540   -5.6240   -0.7080 C   0  0  0  0  0  3  0  0  0  0  0  0
    8.4610   -4.6630   -0.6580 C   0  0  0  0  0  3  0  0  0  0  0  0
    8.6780   -3.9400    0.5170 C   0  0  0  0  0  3  0  0  0  0  0  0
  1 21  1  0  0  0  0
  2  1  1  0  0  0  0
  3  4  1  0  0  0  0
  3  2  2  0  0  0  0
  4  5  1  0  0  0  0
  5  1  2  0  0  0  0
  5  6  1  0  0  0  0
  6  7  1  0  0  0  0
  7  8  2  0  0  0  0
  8 15  1  0  0  0  0
  9 17  1  0  0  0  0
  9  8  1  0  0  0  0
 10  9  2  0  0  0  0
 11 10  1  0  0  0  0
 11  6  2  0  0  0  0
 12 10  1  0  0  0  0
 13 12  2  0  0  0  0
 14 12  1  0  0  0  0
 15 16  1  0  0  0  0
 18 17  1  0  0  0  0
 20 19  2  0  0  0  0
 21 22  1  0  0  0  0
 21 20  1  0  0  0  0
 23 20  1  0  0  0  0
 23 24  1  0  0  0  0
 25 24  1  0  0  0  0
 26 25  1  0  0  0  0
 27 26  1  0  0  0  0
 28 27  2  0  0  0  0
 29 30  2  0  0  0  0
 29 28  1  0  0  0  0
 30 31  1  0  0  0  0
 31 26  2  0  0  0  0
M  END
>  <minimizedAffinity>
-6.43501902

$$$$

 OpenBabel09132200253D

 31 33  0  0  0  0  0  0  0  0999 V2000
    9.8690    1.5070    2.2270 C   0  0  0  0  0  0  0  0  0  0  0  0
   10.2070    2.5920    3.1000 C   0  0  0  0  0  3  0  0  0  0  0  0
   10.2950    2.2090    4.4180 C   0  0  0  0  0  3  0  0  0  0  0  0
    9.9890    0.5480    4.6150 S   0  0  0  0  0  0  0  0  0  0  0  0
    9.7450    0.3080    2.9250 C   0  0  0  0  0  0  0  0  0  0  0  0
    9.4270   -1.0360    2.4190 C   0  0  0  0  0  0  0  0  0  0  0  0
    8.6490   -1.8330    3.1720 N   0  0  0  0  0  0  0  0  0  0  0  0
    8.3750   -3.0180    2.6200 C   0  0  0  0  0  0  0  0  0  0  0  0
    8.8190   -3.4440    1.3850 C   0  0  0  0  0  0  0  0  0  0  0  0
    9.6170   -2.5580    0.6820 C   0  0  0  0  0  0  0  0  0  0  0  0
    9.9300   -1.3380    1.2070 N   0  0  0  0  0  0  0  0  0  0  0  0
   10.1180   -2.9630   -0.7000 C   0  0  0  0  0  0  0  0  0  0  0  0
   10.5670   -2.0050   -1.4210 O   0  0  0  0  0  0  0  0  0  0  0  0
   10.0720   -4.1860   -1.0320 O   0  0  0  0  0  1  0  0  0  0  0  0
    7.5770   -3.8580    3.3590 O   0  0  0  0  0  0  0  0  0  0  0  0
    7.5060   -4.6460    2.7850 H   0  0  0  0  0  0  0  0  0  0  0  0
    8.4410   -4.6840    0.9410 O   0  0  0  0  0  0  0  0  0  0  0  0
    8.8620   -4.7740    0.0360 H   0  0  0  0  0  0  0  0  0  0  0  0
   10.5660    1.7660   -1.2720 O   0  0  0  0  0  0  0  0  0  0  0  0
   10.5940    2.0810   -0.0880 C   0  0  0  0  0  0  0  0  0  0  0  0
    9.7190    1.5850    0.8420 N   0  0  0  0  0  0  0  0  0  0  0  0
    8.8540    1.1950    0.4530 H   0  0  0  0  0  0  0  0  0  0  0  0
   11.5270    2.9730    0.3560 O   0  0  0  0  0  0  0  0  0  0  0  0
   11.3550    4.3450   -0.0570 C   0  0  0  0  0  2  0  0  0  0  0  0
    9.9100    4.8590    0.0310 C   0  0  0  0  0  2  0  0  0  0  0  0
    9.7990    6.2210    0.6770 C   0  0  0  0  0  0  0  0  0  0  0  0
    9.2790    7.3080   -0.0360 C   0  0  0  0  0  3  0  0  0  0  0  0
    9.1300    8.5520    0.5770 C   0  0  0  0  0  3  0  0  0  0  0  0
    9.5120    8.7280    1.9050 C   0  0  0  0  0  3  0  0  0  0  0  0
   10.0410    7.6590    2.6230 C   0  0  0  0  0  3  0  0  0  0  0  0
   10.1870    6.4120    2.0120 C   0  0  0  0  0  3  0  0  0  0  0  0
  1  5  2  0  0  0  0
  1  2  1  0  0  0  0
  2  3  2  0  0  0  0
  3  4  1  0  0  0  0
  5  4  1  0  0  0  0
  6  5  1  0  0  0  0
  6  7  1  0  0  0  0
  8  7  2  0  0  0  0
  8 15  1  0  0  0  0
  9  8  1  0  0  0  0
 10 11  1  0  0  0  0
 10  9  2  0  0  0  0
 11  6  2  0  0  0  0
 12 10  1  0  0  0  0
 13 12  2  0  0  0  0
 14 12  1  0  0  0  0
 16 15  1  0  0  0  0
 17  9  1  0  0  0  0
 18 17  1  0  0  0  0
 19 20  2  0  0  0  0
 20 23  1  0  0  0  0
 20 21  1  0  0  0  0
 21  1  1  0  0  0  0
 22 21  1  0  0  0  0
 24 25  1  0  0  0  0
 24 23  1  0  0  0  0
 25 26  1  0  0  0  0
 26 31  1  0  0  0  0
 27 28  1  0  0  0  0
 27 26  2  0  0  0  0
 28 29  2  0  0  0  0
 29 30  1  0  0  0  0
 31 30  2  0  0  0  0
M  END
>  <minimizedAffinity>
-6.38712692

$$$$

 OpenBabel09132200253D

 31 33  0  0  0  0  0  0  0  0999 V2000
    7.5650   -3.3770    4.3680 C   0  0  0  0  0  0  0  0  0  0  0  0
    6.6880   -3.1980    5.4870 C   0  0  0  0  0  3  0  0  0  0  0  0
    5.3880   -3.5450    5.2090 C   0  0  0  0  0  3  0  0  0  0  0  0
    5.2110   -4.1020    3.6120 S   0  0  0  0  0  0  0  0  0  0  0  0
    6.8890   -3.8990    3.2670 C   0  0  0  0  0  0  0  0  0  0  0  0
    7.4040   -4.2460    1.9350 C   0  0  0  0  0  0  0  0  0  0  0  0
    6.6440   -5.0150    1.1370 N   0  0  0  0  0  0  0  0  0  0  0  0
    7.1680   -5.2460   -0.0700 C   0  0  0  0  0  0  0  0  0  0  0  0
    8.3790   -4.7620   -0.5190 C   0  0  0  0  0  0  0  0  0  0  0  0
    9.0960   -3.9820    0.3720 C   0  0  0  0  0  0  0  0  0  0  0  0
    8.6050   -3.7220    1.6190 N   0  0  0  0  0  0  0  0  0  0  0  0
   10.4310   -3.3980   -0.0750 C   0  0  0  0  0  0  0  0  0  0  0  0
   11.2270   -3.0640    0.8710 O   0  0  0  0  0  1  0  0  0  0  0  0
   10.6670   -3.2960   -1.3170 O   0  0  0  0  0  0  0  0  0  0  0  0
    6.4150   -6.0240   -0.9160 O   0  0  0  0  0  0  0  0  0  0  0  0
    6.9700   -6.0660   -1.7200 H   0  0  0  0  0  0  0  0  0  0  0  0
    8.7810   -5.0700   -1.7920 O   0  0  0  0  0  0  0  0  0  0  0  0
    9.6650   -4.6120   -1.9030 H   0  0  0  0  0  0  0  0  0  0  0  0
   10.7320   -1.7340    4.6170 O   0  0  0  0  0  0  0  0  0  0  0  0
    9.5790   -1.9150    4.2420 C   0  0  0  0  0  0  0  0  0  0  0  0
    8.9350   -3.1200    4.3490 N   0  0  0  0  0  0  0  0  0  0  0  0
    9.5550   -3.9290    4.4580 H   0  0  0  0  0  0  0  0  0  0  0  0
    8.8780   -0.8880    3.6800 O   0  0  0  0  0  0  0  0  0  0  0  0
    9.6030   -0.0370    2.7670 C   0  0  0  0  0  2  0  0  0  0  0  0
    9.1340   -0.1250    1.3070 C   0  0  0  0  0  2  0  0  0  0  0  0
    9.9870    0.6820    0.3560 C   0  0  0  0  0  0  0  0  0  0  0  0
   10.4490    1.9540    0.7180 C   0  0  0  0  0  3  0  0  0  0  0  0
   11.2780    2.6770   -0.1400 C   0  0  0  0  0  3  0  0  0  0  0  0
   11.6440    2.1450   -1.3740 C   0  0  0  0  0  3  0  0  0  0  0  0
   11.1830    0.8860   -1.7520 C   0  0  0  0  0  3  0  0  0  0  0  0
   10.3560    0.1590   -0.8930 C   0  0  0  0  0  3  0  0  0  0  0  0
  1  2  1  0  0  0  0
  3  2  2  0  0  0  0
  4  3  1  0  0  0  0
  5  4  1  0  0  0  0
  5  1  2  0  0  0  0
  6  5  1  0  0  0  0
  7  6  1  0  0  0  0
  8  7  2  0  0  0  0
  9  8  1  0  0  0  0
  9 10  2  0  0  0  0
 10 11  1  0  0  0  0
 11  6  2  0  0  0  0
 12 10  1  0  0  0  0
 12 13  1  0  0  0  0
 14 12  2  0  0  0  0
 15  8  1  0  0  0  0
 16 15  1  0  0  0  0
 17  9  1  0  0  0  0
 18 17  1  0  0  0  0
 20 21  1  0  0  0  0
 20 19  2  0  0  0  0
 21  1  1  0  0  0  0
 21 22  1  0  0  0  0
 23 20  1  0  0  0  0
 24 23  1  0  0  0  0
 25 24  1  0  0  0  0
 26 27  1  0  0  0  0
 26 25  1  0  0  0  0
 28 27  2  0  0  0  0
 29 28  1  0  0  0  0
 30 29  2  0  0  0  0
 30 31  1  0  0  0  0
 31 26  2  0  0  0  0
M  END
>  <minimizedAffinity>
-6.21702814

$$$$

 OpenBabel09132200253D

 31 33  0  0  0  0  0  0  0  0999 V2000
   10.6600   -0.6250   -0.7470 C   0  0  0  0  0  0  0  0  0  0  0  0
   11.1080   -1.3630   -1.8910 C   0  0  0  0  0  3  0  0  0  0  0  0
   11.7040   -0.5670   -2.8400 C   0  0  0  0  0  3  0  0  0  0  0  0
   11.7470    1.0640   -2.3610 S   0  0  0  0  0  0  0  0  0  0  0  0
   10.9730    0.7290   -0.8570 C   0  0  0  0  0  0  0  0  0  0  0  0
   10.7120    1.8250    0.0870 C   0  0  0  0  0  0  0  0  0  0  0  0
   10.5120    1.5190    1.3810 N   0  0  0  0  0  0  0  0  0  0  0  0
   10.3250    2.5770    2.1760 C   0  0  0  0  0  0  0  0  0  0  0  0
   10.3300    3.8930    1.7650 C   0  0  0  0  0  0  0  0  0  0  0  0
   10.5410    4.1140    0.4140 C   0  0  0  0  0  0  0  0  0  0  0  0
   10.7300    3.0650   -0.4390 N   0  0  0  0  0  0  0  0  0  0  0  0
   10.5810    5.5490   -0.0960 C   0  0  0  0  0  0  0  0  0  0  0  0
   11.7280    6.1170   -0.0420 O   0  0  0  0  0  1  0  0  0  0  0  0
    9.5130    6.0700   -0.5390 O   0  0  0  0  0  0  0  0  0  0  0  0
   10.1230    2.3020    3.5070 O   0  0  0  0  0  0  0  0  0  0  0  0
   10.0110    3.1930    3.8940 H   0  0  0  0  0  0  0  0  0  0  0  0
   10.1400    4.8760    2.7010 O   0  0  0  0  0  0  0  0  0  0  0  0
   10.1940    5.7350    2.1880 H   0  0  0  0  0  0  0  0  0  0  0  0
    9.3180   -2.9170    1.6480 O   0  0  0  0  0  0  0  0  0  0  0  0
    9.4930   -2.4050    0.5480 C   0  0  0  0  0  0  0  0  0  0  0  0
   10.0300   -1.1560    0.3780 N   0  0  0  0  0  0  0  0  0  0  0  0
    9.9810   -0.5520    1.2050 H   0  0  0  0  0  0  0  0  0  0  0  0
    9.1380   -3.0840   -0.5810 O   0  0  0  0  0  0  0  0  0  0  0  0
    9.0660   -4.5210   -0.4730 C   0  0  0  0  0  2  0  0  0  0  0  0
    7.8270   -5.1470   -1.1320 C   0  0  0  0  0  2  0  0  0  0  0  0
    6.7290   -5.4760   -0.1480 C   0  0  0  0  0  0  0  0  0  0  0  0
    6.9820   -5.4720    1.2290 C   0  0  0  0  0  3  0  0  0  0  0  0
    5.9550   -5.7260    2.1390 C   0  0  0  0  0  3  0  0  0  0  0  0
    4.6680   -5.9990    1.6840 C   0  0  0  0  0  3  0  0  0  0  0  0
    4.4040   -6.0180    0.3170 C   0  0  0  0  0  3  0  0  0  0  0  0
    5.4290   -5.7600   -0.5960 C   0  0  0  0  0  3  0  0  0  0  0  0
  1 21  1  0  0  0  0
  2  1  1  0  0  0  0
  3  4  1  0  0  0  0
  3  2  2  0  0  0  0
  4  5  1  0  0  0  0
  5  1  2  0  0  0  0
  5  6  1  0  0  0  0
  6  7  1  0  0  0  0
  7  8  2  0  0  0  0
  8 15  1  0  0  0  0
  9  8  1  0  0  0  0
  9 17  1  0  0  0  0
 10  9  2  0  0  0  0
 11  6  2  0  0  0  0
 11 10  1  0  0  0  0
 12 13  1  0  0  0  0
 12 10  1  0  0  0  0
 14 12  2  0  0  0  0
 15 16  1  0  0  0  0
 18 17  1  0  0  0  0
 20 19  2  0  0  0  0
 21 20  1  0  0  0  0
 21 22  1  0  0  0  0
 23 24  1  0  0  0  0
 23 20  1  0  0  0  0
 25 24  1  0  0  0  0
 25 26  1  0  0  0  0
 26 27  1  0  0  0  0
 27 28  2  0  0  0  0
 29 28  1  0  0  0  0
 30 29  2  0  0  0  0
 31 26  2  0  0  0  0
 31 30  1  0  0  0  0
M  END
>  <minimizedAffinity>
-6.11375666

$$$$

 OpenBabel09132200253D

 31 33  0  0  0  0  0  0  0  0999 V2000
   11.0550    3.7140    2.9800 C   0  0  0  0  0  0  0  0  0  0  0  0
   11.2180    4.9140    3.7460 C   0  0  0  0  0  3  0  0  0  0  0  0
   10.5930    4.8570    4.9690 C   0  0  0  0  0  3  0  0  0  0  0  0
    9.8230    3.3610    5.2150 S   0  0  0  0  0  0  0  0  0  0  0  0
   10.3260    2.7550    3.6810 C   0  0  0  0  0  0  0  0  0  0  0  0
    9.9470    1.3930    3.2770 C   0  0  0  0  0  0  0  0  0  0  0  0
    9.6640    1.1680    1.9820 N   0  0  0  0  0  0  0  0  0  0  0  0
    9.3710   -0.1030    1.6940 C   0  0  0  0  0  0  0  0  0  0  0  0
    9.3490   -1.1410    2.6020 C   0  0  0  0  0  0  0  0  0  0  0  0
    9.6510   -0.8160    3.9130 C   0  0  0  0  0  0  0  0  0  0  0  0
    9.9500    0.4700    4.2580 N   0  0  0  0  0  0  0  0  0  0  0  0
    9.6660   -1.9260    4.9580 C   0  0  0  0  0  0  0  0  0  0  0  0
    8.5280   -2.4570    5.2090 O   0  0  0  0  0  0  0  0  0  0  0  0
   10.7720   -2.2510    5.4870 O   0  0  0  0  0  1  0  0  0  0  0  0
    9.0810   -0.3730    0.3780 O   0  0  0  0  0  0  0  0  0  0  0  0
    8.9000   -1.3330    0.3910 H   0  0  0  0  0  0  0  0  0  0  0  0
    9.0450   -2.4010    2.1560 O   0  0  0  0  0  0  0  0  0  0  0  0
    9.0990   -2.9840    2.9690 H   0  0  0  0  0  0  0  0  0  0  0  0
   11.7780    3.9510   -0.5140 O   0  0  0  0  0  0  0  0  0  0  0  0
   11.0860    3.8590    0.4930 C   0  0  0  0  0  0  0  0  0  0  0  0
   11.5790    3.4720    1.7110 N   0  0  0  0  0  0  0  0  0  0  0  0
   12.4690    2.9630    1.6710 H   0  0  0  0  0  0  0  0  0  0  0  0
    9.7520    4.1420    0.4280 O   0  0  0  0  0  0  0  0  0  0  0  0
    9.3910    5.4320   -0.1060 C   0  0  0  0  0  2  0  0  0  0  0  0
    9.8690    6.6250    0.7350 C   0  0  0  0  0  2  0  0  0  0  0  0
    9.8090    7.9410   -0.0060 C   0  0  0  0  0  0  0  0  0  0  0  0
    9.2490    9.0740    0.5970 C   0  0  0  0  0  3  0  0  0  0  0  0
    9.2400   10.2990   -0.0690 C   0  0  0  0  0  3  0  0  0  0  0  0
    9.7780   10.4050   -1.3490 C   0  0  0  0  0  3  0  0  0  0  0  0
   10.3280    9.2850   -1.9660 C   0  0  0  0  0  3  0  0  0  0  0  0
   10.3420    8.0570   -1.3000 C   0  0  0  0  0  3  0  0  0  0  0  0
  1  5  2  0  0  0  0
  1  2  1  0  0  0  0
  2  3  2  0  0  0  0
  3  4  1  0  0  0  0
  5  4  1  0  0  0  0
  6  5  1  0  0  0  0
  6 11  2  0  0  0  0
  7  6  1  0  0  0  0
  8  7  2  0  0  0  0
  8  9  1  0  0  0  0
  9 10  2  0  0  0  0
 10 11  1  0  0  0  0
 10 12  1  0  0  0  0
 12 13  2  0  0  0  0
 12 14  1  0  0  0  0
 15 16  1  0  0  0  0
 15  8  1  0  0  0  0
 17  9  1  0  0  0  0
 17 18  1  0  0  0  0
 19 20  2  0  0  0  0
 20 21  1  0  0  0  0
 21  1  1  0  0  0  0
 22 21  1  0  0  0  0
 23 20  1  0  0  0  0
 24 23  1  0  0  0  0
 24 25  1  0  0  0  0
 26 27  1  0  0  0  0
 26 25  1  0  0  0  0
 28 27  2  0  0  0  0
 29 28  1  0  0  0  0
 30 29  2  0  0  0  0
 30 31  1  0  0  0  0
 31 26  2  0  0  0  0
M  END
>  <minimizedAffinity>
-6.08462238

$$$$
