
 OpenBabel09132204463D

 31 33  0  0  0  0  0  0  0  0999 V2000
   11.1900    3.6830    2.8680 C   0  0  0  0  0  0  0  0  0  0  0  0
   11.5460    3.0190    4.0870 C   0  0  0  0  0  3  0  0  0  0  0  0
   11.3430    3.8000    5.2000 C   0  0  0  0  0  3  0  0  0  0  0  0
   10.7090    5.3250    4.7950 S   0  0  0  0  0  0  0  0  0  0  0  0
   10.6850    4.9590    3.1090 C   0  0  0  0  0  0  0  0  0  0  0  0
   10.1920    5.9620    2.1540 C   0  0  0  0  0  0  0  0  0  0  0  0
    9.7800    5.5440    0.9460 N   0  0  0  0  0  0  0  0  0  0  0  0
    9.3080    6.5140    0.1570 C   0  0  0  0  0  0  0  0  0  0  0  0
    9.2230    7.8470    0.4980 C   0  0  0  0  0  0  0  0  0  0  0  0
    9.6740    8.1870    1.7620 C   0  0  0  0  0  0  0  0  0  0  0  0
   10.1700    7.2330    2.6020 N   0  0  0  0  0  0  0  0  0  0  0  0
    9.5820    9.6430    2.2050 C   0  0  0  0  0  0  0  0  0  0  0  0
   10.2390   10.4760    1.4870 O   0  0  0  0  0  0  0  0  0  0  0  0
    8.8750    9.9290    3.2180 O   0  0  0  0  0  1  0  0  0  0  0  0
    8.8720    6.1220   -1.0860 O   0  0  0  0  0  0  0  0  0  0  0  0
    8.5790    6.9650   -1.4850 H   0  0  0  0  0  0  0  0  0  0  0  0
    8.7000    8.7280   -0.4120 O   0  0  0  0  0  0  0  0  0  0  0  0
    8.7250    9.6190    0.0460 H   0  0  0  0  0  0  0  0  0  0  0  0
   10.3340    2.3850   -0.3530 O   0  0  0  0  0  0  0  0  0  0  0  0
   10.3190    2.4770    0.8690 C   0  0  0  0  0  0  0  0  0  0  0  0
   11.2770    3.1450    1.5840 N   0  0  0  0  0  0  0  0  0  0  0  0
   12.1620    3.2880    1.0870 H   0  0  0  0  0  0  0  0  0  0  0  0
    9.3150    1.8880    1.5820 O   0  0  0  0  0  0  0  0  0  0  0  0
    9.5760    0.5620    2.0890 C   0  0  0  0  0  2  0  0  0  0  0  0
    8.7990   -0.5560    1.3780 C   0  0  0  0  0  2  0  0  0  0  0  0
    9.6760   -1.4420    0.5230 C   0  0  0  0  0  0  0  0  0  0  0  0
   10.2840   -0.9390   -0.6340 C   0  0  0  0  0  3  0  0  0  0  0  0
   11.1340   -1.7430   -1.3940 C   0  0  0  0  0  3  0  0  0  0  0  0
   11.3750   -3.0620   -1.0150 C   0  0  0  0  0  3  0  0  0  0  0  0
   10.7680   -3.5790    0.1260 C   0  0  0  0  0  3  0  0  0  0  0  0
    9.9200   -2.7740    0.8910 C   0  0  0  0  0  3  0  0  0  0  0  0
  1  5  2  0  0  0  0
  1  2  1  0  0  0  0
  2  3  2  0  0  0  0
  4  3  1  0  0  0  0
  5  4  1  0  0  0  0
  6 11  2  0  0  0  0
  6  5  1  0  0  0  0
  7  6  1  0  0  0  0
  8  9  1  0  0  0  0
  8  7  2  0  0  0  0
  9 10  2  0  0  0  0
 10 12  1  0  0  0  0
 10 11  1  0  0  0  0
 12 14  1  0  0  0  0
 13 12  2  0  0  0  0
 15  8  1  0  0  0  0
 16 15  1  0  0  0  0
 17 18  1  0  0  0  0
 17  9  1  0  0  0  0
 19 20  2  0  0  0  0
 20 23  1  0  0  0  0
 20 21  1  0  0  0  0
 21  1  1  0  0  0  0
 22 21  1  0  0  0  0
 23 24  1  0  0  0  0
 25 24  1  0  0  0  0
 26 31  1  0  0  0  0
 26 25  1  0  0  0  0
 27 26  2  0  0  0  0
 28 29  2  0  0  0  0
 28 27  1  0  0  0  0
 29 30  1  0  0  0  0
 30 31  2  0  0  0  0
M  END
>  <minimizedAffinity>
-6.83149338

$$$$
