
 OpenBabel09132204463D

 31 33  0  0  0  0  0  0  0  0999 V2000
   11.0550    3.7140    2.9800 C   0  0  0  0  0  0  0  0  0  0  0  0
   11.2180    4.9140    3.7460 C   0  0  0  0  0  3  0  0  0  0  0  0
   10.5930    4.8570    4.9690 C   0  0  0  0  0  3  0  0  0  0  0  0
    9.8230    3.3610    5.2150 S   0  0  0  0  0  0  0  0  0  0  0  0
   10.3260    2.7550    3.6810 C   0  0  0  0  0  0  0  0  0  0  0  0
    9.9470    1.3930    3.2770 C   0  0  0  0  0  0  0  0  0  0  0  0
    9.6640    1.1680    1.9820 N   0  0  0  0  0  0  0  0  0  0  0  0
    9.3710   -0.1030    1.6940 C   0  0  0  0  0  0  0  0  0  0  0  0
    9.3490   -1.1410    2.6020 C   0  0  0  0  0  0  0  0  0  0  0  0
    9.6510   -0.8160    3.9130 C   0  0  0  0  0  0  0  0  0  0  0  0
    9.9500    0.4700    4.2580 N   0  0  0  0  0  0  0  0  0  0  0  0
    9.6660   -1.9260    4.9580 C   0  0  0  0  0  0  0  0  0  0  0  0
    8.5280   -2.4570    5.2090 O   0  0  0  0  0  0  0  0  0  0  0  0
   10.7720   -2.2510    5.4870 O   0  0  0  0  0  1  0  0  0  0  0  0
    9.0810   -0.3730    0.3780 O   0  0  0  0  0  0  0  0  0  0  0  0
    8.9000   -1.3330    0.3910 H   0  0  0  0  0  0  0  0  0  0  0  0
    9.0450   -2.4010    2.1560 O   0  0  0  0  0  0  0  0  0  0  0  0
    9.0990   -2.9840    2.9690 H   0  0  0  0  0  0  0  0  0  0  0  0
   11.7780    3.9510   -0.5140 O   0  0  0  0  0  0  0  0  0  0  0  0
   11.0860    3.8590    0.4930 C   0  0  0  0  0  0  0  0  0  0  0  0
   11.5790    3.4720    1.7110 N   0  0  0  0  0  0  0  0  0  0  0  0
   12.4690    2.9630    1.6710 H   0  0  0  0  0  0  0  0  0  0  0  0
    9.7520    4.1420    0.4280 O   0  0  0  0  0  0  0  0  0  0  0  0
    9.3910    5.4320   -0.1060 C   0  0  0  0  0  2  0  0  0  0  0  0
    9.8690    6.6250    0.7350 C   0  0  0  0  0  2  0  0  0  0  0  0
    9.8090    7.9410   -0.0060 C   0  0  0  0  0  0  0  0  0  0  0  0
    9.2490    9.0740    0.5970 C   0  0  0  0  0  3  0  0  0  0  0  0
    9.2400   10.2990   -0.0690 C   0  0  0  0  0  3  0  0  0  0  0  0
    9.7780   10.4050   -1.3490 C   0  0  0  0  0  3  0  0  0  0  0  0
   10.3280    9.2850   -1.9660 C   0  0  0  0  0  3  0  0  0  0  0  0
   10.3420    8.0570   -1.3000 C   0  0  0  0  0  3  0  0  0  0  0  0
  1  5  2  0  0  0  0
  1  2  1  0  0  0  0
  2  3  2  0  0  0  0
  3  4  1  0  0  0  0
  5  4  1  0  0  0  0
  6  5  1  0  0  0  0
  6 11  2  0  0  0  0
  7  6  1  0  0  0  0
  8  7  2  0  0  0  0
  8  9  1  0  0  0  0
  9 10  2  0  0  0  0
 10 11  1  0  0  0  0
 10 12  1  0  0  0  0
 12 13  2  0  0  0  0
 12 14  1  0  0  0  0
 15 16  1  0  0  0  0
 15  8  1  0  0  0  0
 17  9  1  0  0  0  0
 17 18  1  0  0  0  0
 19 20  2  0  0  0  0
 20 21  1  0  0  0  0
 21  1  1  0  0  0  0
 22 21  1  0  0  0  0
 23 20  1  0  0  0  0
 24 23  1  0  0  0  0
 24 25  1  0  0  0  0
 26 27  1  0  0  0  0
 26 25  1  0  0  0  0
 28 27  2  0  0  0  0
 29 28  1  0  0  0  0
 30 29  2  0  0  0  0
 30 31  1  0  0  0  0
 31 26  2  0  0  0  0
M  END
>  <minimizedAffinity>
-6.08462238

$$$$
