
 OpenBabel09122222393D

 41 46  0  0  0  0  0  0  0  0999 V2000
    5.1610   -1.0340   11.1080 C   0  0  0  0  0  0  0  0  0  0  0  0
    6.5420   -0.9230   11.2590 C   0  0  0  0  0  3  0  0  0  0  0  0
    7.1270    0.3440   11.3260 C   0  0  0  0  0  3  0  0  0  0  0  0
    6.3420    1.5050   11.2370 C   0  0  0  0  0  0  0  0  0  0  0  0
    4.9650    1.3600   11.0370 C   0  0  0  0  0  0  0  0  0  0  0  0
    4.1770    2.4370   10.9020 F   0  0  0  0  0  0  0  0  0  0  0  0
    4.3700    0.1010   10.9730 C   0  0  0  0  0  3  0  0  0  0  0  0
    7.0090    2.8080   11.2720 C   0  0  0  0  0  0  0  0  0  0  0  0
    6.6980    3.7370   12.1560 N   0  0  0  0  0  0  0  0  0  0  0  0
    7.5000    4.8150   11.8890 C   0  0  0  0  0  0  0  0  0  0  0  0
    7.5750    6.0530   12.5470 C   0  0  0  0  0  3  0  0  0  0  0  0
    8.4740    7.0380   12.0920 C   0  0  0  0  0  0  0  0  0  0  0  0
    9.2810    6.7490   10.9800 C   0  0  0  0  0  3  0  0  0  0  0  0
    9.2180    5.5210   10.3080 C   0  0  0  0  0  3  0  0  0  0  0  0
    8.3120    4.5660   10.7870 C   0  0  0  0  0  0  0  0  0  0  0  0
    7.9630    3.2890   10.3830 N   0  0  0  0  0  0  0  0  0  0  0  0
    8.4370    2.6110    9.1790 C   0  0  0  0  0  3  0  0  0  0  0  0
    8.3460    3.4910    7.9190 C   0  0  0  0  0  2  0  0  0  0  0  0
    8.7880    2.7240    6.6740 C   0  0  0  0  0  2  0  0  0  0  0  0
   10.1810    2.1240    6.8480 C   0  0  0  0  0  2  0  0  0  0  0  0
   10.2650    1.2420    8.0920 C   0  0  0  0  0  2  0  0  0  0  0  0
    9.8350    1.9960    9.3480 C   0  0  0  0  0  2  0  0  0  0  0  0
    8.5630    8.3830   12.7840 C   0  0  0  0  0  0  0  0  0  0  0  0
    9.3590    9.2420   12.2900 O   0  0  0  0  0  0  0  0  0  0  0  0
    7.8350    8.5510   13.8140 O   0  0  0  0  0  1  0  0  0  0  0  0
    4.5740   -2.2670   11.0070 O   0  0  0  0  0  0  0  0  0  0  0  0
    4.9450   -2.9200    9.7800 C   0  0  0  0  0  2  0  0  0  0  0  0
    1.3840   -1.3960    5.5800 C   0  0  0  0  0  1  0  0  0  0  0  0
    2.3260   -1.8350    6.6580 C   0  0  0  0  0  0  0  0  0  0  0  0
    1.7940   -2.2140    7.8310 N   0  0  0  0  0  0  0  0  0  0  0  0
    2.6650   -2.5520    8.8000 C   0  0  0  0  0  3  0  0  0  0  0  0
    4.0390   -2.5240    8.6530 C   0  0  0  0  0  0  0  0  0  0  0  0
    4.4830   -2.1340    7.3990 C   0  0  0  0  0  0  0  0  0  0  0  0
    3.6420   -1.7820    6.4000 N   0  0  0  0  0  0  0  0  0  0  0  0
    5.9020   -2.0660    7.0350 C   0  0  0  0  0  0  0  0  0  0  0  0
    6.4570   -2.9960    6.1400 C   0  0  0  0  0  3  0  0  0  0  0  0
    7.8040   -2.9200    5.7760 C   0  0  0  0  0  3  0  0  0  0  0  0
    8.6080   -1.9150    6.3090 C   0  0  0  0  0  0  0  0  0  0  0  0
   10.2650   -1.8150    5.8580 Cl  0  0  0  0  0  0  0  0  0  0  0  0
    8.0790   -0.9890    7.2070 C   0  0  0  0  0  3  0  0  0  0  0  0
    6.7330   -1.0670    7.5700 C   0  0  0  0  0  3  0  0  0  0  0  0
  1  2  1  0  0  0  0
  2  3  2  0  0  0  0
  4  8  1  0  0  0  0
  4  3  1  0  0  0  0
  5  4  2  0  0  0  0
  6  5  1  0  0  0  0
  7  5  1  0  0  0  0
  7  1  2  0  0  0  0
  8  9  2  0  0  0  0
 10  9  1  0  0  0  0
 10 11  1  0  0  0  0
 12 11  2  0  0  0  0
 12 23  1  0  0  0  0
 13 12  1  0  0  0  0
 14 15  1  0  0  0  0
 14 13  2  0  0  0  0
 15 10  2  0  0  0  0
 16 15  1  0  0  0  0
 16  8  1  0  0  0  0
 17 22  1  0  0  0  0
 17 16  1  0  0  0  0
 18 17  1  0  0  0  0
 19 20  1  0  0  0  0
 19 18  1  0  0  0  0
 20 21  1  0  0  0  0
 21 22  1  0  0  0  0
 23 25  1  0  0  0  0
 24 23  2  0  0  0  0
 26  1  1  0  0  0  0
 27 26  1  0  0  0  0
 28 29  1  0  0  0  0
 29 30  2  0  0  0  0
 30 31  1  0  0  0  0
 32 31  2  0  0  0  0
 32 27  1  0  0  0  0
 33 32  1  0  0  0  0
 34 29  1  0  0  0  0
 34 33  2  0  0  0  0
 35 33  1  0  0  0  0
 35 41  1  0  0  0  0
 36 35  2  0  0  0  0
 37 36  1  0  0  0  0
 37 38  2  0  0  0  0
 38 40  1  0  0  0  0
 39 38  1  0  0  0  0
 40 41  2  0  0  0  0
M  END
>  <minimizedAffinity>
-6.85613203

$$$$
