
 OpenBabel09122222393D

 41 46  0  0  0  0  0  0  0  0999 V2000
    4.8740   -0.2450   12.6820 C   0  0  0  0  0  0  0  0  0  0  0  0
    6.0610    0.0070   13.3650 C   0  0  0  0  0  3  0  0  0  0  0  0
    6.7130    1.2300   13.1830 C   0  0  0  0  0  3  0  0  0  0  0  0
    6.1900    2.2030   12.3160 C   0  0  0  0  0  0  0  0  0  0  0  0
    5.0220    1.9000   11.6090 C   0  0  0  0  0  0  0  0  0  0  0  0
    4.5050    2.7770   10.7360 F   0  0  0  0  0  0  0  0  0  0  0  0
    4.3610    0.6850   11.7850 C   0  0  0  0  0  3  0  0  0  0  0  0
    6.9330    3.4510   12.1310 C   0  0  0  0  0  0  0  0  0  0  0  0
    6.8300    4.4660   12.9680 N   0  0  0  0  0  0  0  0  0  0  0  0
    7.6410    5.4570   12.4820 C   0  0  0  0  0  0  0  0  0  0  0  0
    7.9000    6.7320   13.0100 C   0  0  0  0  0  3  0  0  0  0  0  0
    8.7700    7.6090   12.3320 C   0  0  0  0  0  0  0  0  0  0  0  0
    9.3640    7.1770   11.1360 C   0  0  0  0  0  3  0  0  0  0  0  0
    9.1160    5.9090   10.5930 C   0  0  0  0  0  3  0  0  0  0  0  0
    8.2440    5.0630   11.2920 C   0  0  0  0  0  0  0  0  0  0  0  0
    7.7550    3.7890   11.0630 N   0  0  0  0  0  0  0  0  0  0  0  0
    7.9810    2.9880    9.8620 C   0  0  0  0  0  3  0  0  0  0  0  0
    7.8180    3.7940    8.5620 C   0  0  0  0  0  2  0  0  0  0  0  0
    7.9970    2.9050    7.3320 C   0  0  0  0  0  2  0  0  0  0  0  0
    9.3250    2.1530    7.3710 C   0  0  0  0  0  2  0  0  0  0  0  0
    9.4790    1.3440    8.6570 C   0  0  0  0  0  2  0  0  0  0  0  0
    9.3120    2.2190    9.8970 C   0  0  0  0  0  2  0  0  0  0  0  0
    9.0550    8.9920   12.8800 C   0  0  0  0  0  0  0  0  0  0  0  0
    9.3830    9.8950   12.0470 O   0  0  0  0  0  0  0  0  0  0  0  0
    8.9480    9.1480   14.1390 O   0  0  0  0  0  1  0  0  0  0  0  0
    4.2400   -1.4500   12.8210 O   0  0  0  0  0  0  0  0  0  0  0  0
    4.2520   -1.8880   14.1910 C   0  0  0  0  0  2  0  0  0  0  0  0
   -0.9850   -1.9330   16.4750 C   0  0  0  0  0  1  0  0  0  0  0  0
    0.3910   -1.9660   15.8860 C   0  0  0  0  0  0  0  0  0  0  0  0
    1.3780   -1.3820   16.5830 N   0  0  0  0  0  0  0  0  0  0  0  0
    2.5950   -1.3790   16.0060 C   0  0  0  0  0  3  0  0  0  0  0  0
    2.8670   -1.9270   14.7670 C   0  0  0  0  0  0  0  0  0  0  0  0
    1.7830   -2.5200   14.1400 C   0  0  0  0  0  0  0  0  0  0  0  0
    0.5440   -2.5400   14.6820 N   0  0  0  0  0  0  0  0  0  0  0  0
    1.8720   -3.1800   12.8330 C   0  0  0  0  0  0  0  0  0  0  0  0
    1.4220   -2.5300   11.6720 C   0  0  0  0  0  3  0  0  0  0  0  0
    1.5260   -3.1490   10.4220 C   0  0  0  0  0  3  0  0  0  0  0  0
    2.0760   -4.4250   10.3270 C   0  0  0  0  0  0  0  0  0  0  0  0
    2.2110   -5.1860    8.7900 Cl  0  0  0  0  0  0  0  0  0  0  0  0
    2.5190   -5.0900   11.4680 C   0  0  0  0  0  3  0  0  0  0  0  0
    2.4140   -4.4700   12.7160 C   0  0  0  0  0  3  0  0  0  0  0  0
  1 26  1  0  0  0  0
  1  2  1  0  0  0  0
  3  2  2  0  0  0  0
  4  3  1  0  0  0  0
  5  7  1  0  0  0  0
  5  4  2  0  0  0  0
  6  5  1  0  0  0  0
  7  1  2  0  0  0  0
  8  4  1  0  0  0  0
  8  9  2  0  0  0  0
 10  9  1  0  0  0  0
 10 11  1  0  0  0  0
 12 23  1  0  0  0  0
 12 11  2  0  0  0  0
 13 12  1  0  0  0  0
 14 13  2  0  0  0  0
 14 15  1  0  0  0  0
 15 10  2  0  0  0  0
 16 15  1  0  0  0  0
 16  8  1  0  0  0  0
 17 22  1  0  0  0  0
 17 16  1  0  0  0  0
 18 17  1  0  0  0  0
 19 20  1  0  0  0  0
 19 18  1  0  0  0  0
 20 21  1  0  0  0  0
 21 22  1  0  0  0  0
 23 25  1  0  0  0  0
 24 23  2  0  0  0  0
 26 27  1  0  0  0  0
 27 32  1  0  0  0  0
 29 28  1  0  0  0  0
 29 30  2  0  0  0  0
 31 30  1  0  0  0  0
 32 31  2  0  0  0  0
 33 34  2  0  0  0  0
 33 32  1  0  0  0  0
 34 29  1  0  0  0  0
 35 33  1  0  0  0  0
 36 35  2  0  0  0  0
 37 36  1  0  0  0  0
 38 37  2  0  0  0  0
 38 40  1  0  0  0  0
 39 38  1  0  0  0  0
 40 41  2  0  0  0  0
 41 35  1  0  0  0  0
M  END
>  <minimizedAffinity>
-6.84063864

$$$$
