
 OpenBabel09122222393D

 41 46  0  0  0  0  0  0  0  0999 V2000
    7.5140    3.3400   13.3350 C   0  0  0  0  0  0  0  0  0  0  0  0
    8.2580    2.2380   12.9170 C   0  0  0  0  0  3  0  0  0  0  0  0
    7.6760    1.3010   12.0590 C   0  0  0  0  0  3  0  0  0  0  0  0
    6.3520    1.4520   11.6190 C   0  0  0  0  0  0  0  0  0  0  0  0
    5.6160    2.5430   12.0950 C   0  0  0  0  0  0  0  0  0  0  0  0
    4.3340    2.7100   11.7390 F   0  0  0  0  0  0  0  0  0  0  0  0
    6.1870    3.4860   12.9480 C   0  0  0  0  0  3  0  0  0  0  0  0
    5.7770    0.4210   10.7520 C   0  0  0  0  0  0  0  0  0  0  0  0
    6.0040    0.3830    9.4530 N   0  0  0  0  0  0  0  0  0  0  0  0
    5.3060   -0.6910    8.9660 C   0  0  0  0  0  0  0  0  0  0  0  0
    5.2250   -1.1760    7.6510 C   0  0  0  0  0  3  0  0  0  0  0  0
    4.4280   -2.3010    7.3660 C   0  0  0  0  0  0  0  0  0  0  0  0
    3.7300   -2.9160    8.4170 C   0  0  0  0  0  3  0  0  0  0  0  0
    3.7960   -2.4440    9.7350 C   0  0  0  0  0  3  0  0  0  0  0  0
    4.5970   -1.3220    9.9830 C   0  0  0  0  0  0  0  0  0  0  0  0
    4.8820   -0.5790   11.1150 N   0  0  0  0  0  0  0  0  0  0  0  0
    4.2710   -0.7520   12.4310 C   0  0  0  0  0  3  0  0  0  0  0  0
    2.7450   -0.5600   12.4140 C   0  0  0  0  0  2  0  0  0  0  0  0
    2.1550   -0.6840   13.8180 C   0  0  0  0  0  2  0  0  0  0  0  0
    2.5540   -2.0000   14.4810 C   0  0  0  0  0  2  0  0  0  0  0  0
    4.0700   -2.1820   14.5080 C   0  0  0  0  0  2  0  0  0  0  0  0
    4.6760   -2.0700   13.1100 C   0  0  0  0  0  2  0  0  0  0  0  0
    4.3210   -2.8350    5.9520 C   0  0  0  0  0  0  0  0  0  0  0  0
    3.4190   -2.3390    5.2070 O   0  0  0  0  0  0  0  0  0  0  0  0
    5.1430   -3.7470    5.6150 O   0  0  0  0  0  1  0  0  0  0  0  0
    8.0560    4.2500   14.2030 O   0  0  0  0  0  0  0  0  0  0  0  0
    9.4230    4.5410   13.8640 C   0  0  0  0  0  2  0  0  0  0  0  0
   10.0350    9.8740   11.9070 C   0  0  0  0  0  1  0  0  0  0  0  0
    9.8290    8.4790   12.4100 C   0  0  0  0  0  0  0  0  0  0  0  0
    9.9040    8.2800   13.7360 N   0  0  0  0  0  0  0  0  0  0  0  0
    9.7690    7.0090   14.1580 C   0  0  0  0  0  3  0  0  0  0  0  0
    9.5680    5.9300   13.3170 C   0  0  0  0  0  0  0  0  0  0  0  0
    9.4900    6.2470   11.9700 C   0  0  0  0  0  0  0  0  0  0  0  0
    9.6250    7.5090   11.5050 N   0  0  0  0  0  0  0  0  0  0  0  0
    9.2540    5.2480   10.9230 C   0  0  0  0  0  0  0  0  0  0  0  0
   10.2650    4.3430   10.5560 C   0  0  0  0  0  3  0  0  0  0  0  0
   10.0350    3.3760    9.5730 C   0  0  0  0  0  3  0  0  0  0  0  0
    8.7940    3.3110    8.9450 C   0  0  0  0  0  0  0  0  0  0  0  0
    8.5060    2.1180    7.7390 Cl  0  0  0  0  0  0  0  0  0  0  0  0
    7.7810    4.2060    9.2870 C   0  0  0  0  0  3  0  0  0  0  0  0
    8.0130    5.1720   10.2690 C   0  0  0  0  0  3  0  0  0  0  0  0
  1 26  1  0  0  0  0
  2  1  2  0  0  0  0
  3  2  1  0  0  0  0
  4  3  2  0  0  0  0
  4  5  1  0  0  0  0
  5  7  2  0  0  0  0
  6  5  1  0  0  0  0
  7  1  1  0  0  0  0
  8 16  1  0  0  0  0
  8  4  1  0  0  0  0
  9  8  2  0  0  0  0
 10  9  1  0  0  0  0
 10 15  1  0  0  0  0
 11 10  2  0  0  0  0
 12 11  1  0  0  0  0
 12 13  2  0  0  0  0
 13 14  1  0  0  0  0
 14 15  2  0  0  0  0
 15 16  1  0  0  0  0
 16 17  1  0  0  0  0
 17 22  1  0  0  0  0
 18 17  1  0  0  0  0
 18 19  1  0  0  0  0
 19 20  1  0  0  0  0
 20 21  1  0  0  0  0
 22 21  1  0  0  0  0
 23 12  1  0  0  0  0
 24 23  2  0  0  0  0
 25 23  1  0  0  0  0
 27 26  1  0  0  0  0
 28 29  1  0  0  0  0
 29 30  2  0  0  0  0
 30 31  1  0  0  0  0
 32 27  1  0  0  0  0
 32 31  2  0  0  0  0
 33 32  1  0  0  0  0
 34 33  2  0  0  0  0
 34 29  1  0  0  0  0
 35 33  1  0  0  0  0
 36 35  1  0  0  0  0
 37 36  2  0  0  0  0
 38 40  2  0  0  0  0
 38 37  1  0  0  0  0
 39 38  1  0  0  0  0
 40 41  1  0  0  0  0
 41 35  2  0  0  0  0
M  END
>  <minimizedAffinity>
-7.25393963

$$$$
