
 OpenBabel09122222393D

 41 46  0  0  0  0  0  0  0  0999 V2000
    8.0770    2.9350   10.3130 C   0  0  0  0  0  0  0  0  0  0  0  0
    8.5960    1.8390   11.0000 C   0  0  0  0  0  3  0  0  0  0  0  0
    7.7240    0.9290   11.6030 C   0  0  0  0  0  3  0  0  0  0  0  0
    6.3330    1.1080   11.5300 C   0  0  0  0  0  0  0  0  0  0  0  0
    5.8450    2.2430   10.8750 C   0  0  0  0  0  0  0  0  0  0  0  0
    4.5270    2.4840   10.8150 F   0  0  0  0  0  0  0  0  0  0  0  0
    6.7050    3.1560   10.2670 C   0  0  0  0  0  3  0  0  0  0  0  0
    5.4640    0.1470   12.2130 C   0  0  0  0  0  0  0  0  0  0  0  0
    5.4420    0.0220   13.5260 N   0  0  0  0  0  0  0  0  0  0  0  0
    4.5380   -0.9670   13.8090 C   0  0  0  0  0  0  0  0  0  0  0  0
    4.1340   -1.4720   15.0550 C   0  0  0  0  0  3  0  0  0  0  0  0
    3.1880   -2.5140   15.1180 C   0  0  0  0  0  0  0  0  0  0  0  0
    2.6660   -3.0220   13.9180 C   0  0  0  0  0  3  0  0  0  0  0  0
    3.0580   -2.5320   12.6650 C   0  0  0  0  0  3  0  0  0  0  0  0
    4.0030   -1.4980   12.6400 C   0  0  0  0  0  0  0  0  0  0  0  0
    4.6300   -0.7970   11.6250 N   0  0  0  0  0  0  0  0  0  0  0  0
    4.5130   -1.0720   10.1950 C   0  0  0  0  0  3  0  0  0  0  0  0
    4.7640   -2.5490    9.8440 C   0  0  0  0  0  2  0  0  0  0  0  0
    4.6970   -2.7800    8.3350 C   0  0  0  0  0  2  0  0  0  0  0  0
    3.3840   -2.2710    7.7460 C   0  0  0  0  0  2  0  0  0  0  0  0
    3.1440   -0.8020    8.0840 C   0  0  0  0  0  2  0  0  0  0  0  0
    3.1980   -0.5540    9.5910 C   0  0  0  0  0  2  0  0  0  0  0  0
    2.7460   -3.0780   16.4530 C   0  0  0  0  0  0  0  0  0  0  0  0
    1.5630   -3.5370   16.5300 O   0  0  0  0  0  0  0  0  0  0  0  0
    3.5930   -3.0470   17.4020 O   0  0  0  0  0  1  0  0  0  0  0  0
    8.9160    3.8550    9.7460 O   0  0  0  0  0  0  0  0  0  0  0  0
    9.9870    4.2030   10.6410 C   0  0  0  0  0  2  0  0  0  0  0  0
    9.1430    9.3830   12.9000 C   0  0  0  0  0  1  0  0  0  0  0  0
    9.3990    8.0200   12.3370 C   0  0  0  0  0  0  0  0  0  0  0  0
    9.9390    7.9460   11.1100 N   0  0  0  0  0  0  0  0  0  0  0  0
   10.1100    6.7090   10.6060 C   0  0  0  0  0  3  0  0  0  0  0  0
    9.7620    5.5470   11.2680 C   0  0  0  0  0  0  0  0  0  0  0  0
    9.2290    5.7340   12.5340 C   0  0  0  0  0  0  0  0  0  0  0  0
    9.0360    6.9580   13.0750 N   0  0  0  0  0  0  0  0  0  0  0  0
    8.8230    4.6270   13.4050 C   0  0  0  0  0  0  0  0  0  0  0  0
    9.7860    3.8150   14.0270 C   0  0  0  0  0  3  0  0  0  0  0  0
    9.4010    2.7720   14.8760 C   0  0  0  0  0  3  0  0  0  0  0  0
    8.0490    2.5300   15.1030 C   0  0  0  0  0  0  0  0  0  0  0  0
    7.5720    1.2520   16.1510 Cl  0  0  0  0  0  0  0  0  0  0  0  0
    7.0770    3.3180   14.4880 C   0  0  0  0  0  3  0  0  0  0  0  0
    7.4640    4.3590   13.6400 C   0  0  0  0  0  3  0  0  0  0  0  0
  1  2  1  0  0  0  0
  2  3  2  0  0  0  0
  4  3  1  0  0  0  0
  4  8  1  0  0  0  0
  5  4  2  0  0  0  0
  6  5  1  0  0  0  0
  7  1  2  0  0  0  0
  7  5  1  0  0  0  0
  8  9  2  0  0  0  0
  9 10  1  0  0  0  0
 10 11  1  0  0  0  0
 11 12  2  0  0  0  0
 12 23  1  0  0  0  0
 13 12  1  0  0  0  0
 14 13  2  0  0  0  0
 15 14  1  0  0  0  0
 15 10  2  0  0  0  0
 16  8  1  0  0  0  0
 16 15  1  0  0  0  0
 17 16  1  0  0  0  0
 18 17  1  0  0  0  0
 19 18  1  0  0  0  0
 20 21  1  0  0  0  0
 20 19  1  0  0  0  0
 21 22  1  0  0  0  0
 22 17  1  0  0  0  0
 23 24  2  0  0  0  0
 23 25  1  0  0  0  0
 26  1  1  0  0  0  0
 26 27  1  0  0  0  0
 27 32  1  0  0  0  0
 29 28  1  0  0  0  0
 29 34  1  0  0  0  0
 30 29  2  0  0  0  0
 31 30  1  0  0  0  0
 31 32  2  0  0  0  0
 32 33  1  0  0  0  0
 33 34  2  0  0  0  0
 33 35  1  0  0  0  0
 35 41  2  0  0  0  0
 35 36  1  0  0  0  0
 36 37  2  0  0  0  0
 37 38  1  0  0  0  0
 38 39  1  0  0  0  0
 40 38  2  0  0  0  0
 41 40  1  0  0  0  0
M  END
>  <minimizedAffinity>
-7.29100513

$$$$
