
 OpenBabel09122222393D

 41 46  0  0  0  0  0  0  0  0999 V2000
    4.8510    0.2900   12.2440 C   0  0  0  0  0  0  0  0  0  0  0  0
    4.3240    1.3790   11.5540 C   0  0  0  0  0  3  0  0  0  0  0  0
    5.0970    2.5310   11.3920 C   0  0  0  0  0  3  0  0  0  0  0  0
    6.3960    2.6070   11.9200 C   0  0  0  0  0  0  0  0  0  0  0  0
    6.8790    1.5140   12.6490 C   0  0  0  0  0  0  0  0  0  0  0  0
    8.0960    1.5520   13.2100 F   0  0  0  0  0  0  0  0  0  0  0  0
    6.1180    0.3580   12.8140 C   0  0  0  0  0  3  0  0  0  0  0  0
    7.1500    3.8510   11.7560 C   0  0  0  0  0  0  0  0  0  0  0  0
    7.0760    4.8420   12.6250 N   0  0  0  0  0  0  0  0  0  0  0  0
    7.8910    5.8370   12.1520 C   0  0  0  0  0  0  0  0  0  0  0  0
    8.1750    7.0930   12.7110 C   0  0  0  0  0  3  0  0  0  0  0  0
    9.0420    7.9790   12.0420 C   0  0  0  0  0  0  0  0  0  0  0  0
    9.6060    7.5760   10.8220 C   0  0  0  0  0  3  0  0  0  0  0  0
    9.3320    6.3270   10.2470 C   0  0  0  0  0  3  0  0  0  0  0  0
    8.4640    5.4720   10.9390 C   0  0  0  0  0  0  0  0  0  0  0  0
    7.9550    4.2110   10.6820 N   0  0  0  0  0  0  0  0  0  0  0  0
    8.1470    3.4430    9.4540 C   0  0  0  0  0  3  0  0  0  0  0  0
    7.7580    4.2270    8.1880 C   0  0  0  0  0  2  0  0  0  0  0  0
    7.9110    3.3670    6.9350 C   0  0  0  0  0  2  0  0  0  0  0  0
    9.3130    2.7740    6.8270 C   0  0  0  0  0  2  0  0  0  0  0  0
    9.6920    1.9860    8.0790 C   0  0  0  0  0  2  0  0  0  0  0  0
    9.5540    2.8340    9.3420 C   0  0  0  0  0  2  0  0  0  0  0  0
    9.3550    9.3420   12.6250 C   0  0  0  0  0  0  0  0  0  0  0  0
    9.8540   10.2110   11.8430 O   0  0  0  0  0  0  0  0  0  0  0  0
    9.0980    9.5150   13.8600 O   0  0  0  0  0  1  0  0  0  0  0  0
    4.0960   -0.8350   12.4420 O   0  0  0  0  0  0  0  0  0  0  0  0
    3.5360   -1.3090   11.2050 C   0  0  0  0  0  2  0  0  0  0  0  0
   -0.5300   -5.1860   12.2450 C   0  0  0  0  0  1  0  0  0  0  0  0
    0.5650   -4.2040   11.9640 C   0  0  0  0  0  0  0  0  0  0  0  0
    1.0890   -3.5440   13.0080 N   0  0  0  0  0  0  0  0  0  0  0  0
    2.0350   -2.6280   12.7220 C   0  0  0  0  0  3  0  0  0  0  0  0
    2.4750   -2.3420   11.4430 C   0  0  0  0  0  0  0  0  0  0  0  0
    1.8810   -3.0910   10.4400 C   0  0  0  0  0  0  0  0  0  0  0  0
    0.9250   -4.0160   10.6840 N   0  0  0  0  0  0  0  0  0  0  0  0
    2.2300   -2.9550    9.0220 C   0  0  0  0  0  0  0  0  0  0  0  0
    1.9500   -1.7660    8.3280 C   0  0  0  0  0  3  0  0  0  0  0  0
    2.3020   -1.6260    6.9820 C   0  0  0  0  0  3  0  0  0  0  0  0
    2.9300   -2.6770    6.3190 C   0  0  0  0  0  0  0  0  0  0  0  0
    3.3690   -2.5060    4.6650 Cl  0  0  0  0  0  0  0  0  0  0  0  0
    3.2070   -3.8690    6.9880 C   0  0  0  0  0  3  0  0  0  0  0  0
    2.8550   -4.0070    8.3330 C   0  0  0  0  0  3  0  0  0  0  0  0
  1 26  1  0  0  0  0
  1  7  1  0  0  0  0
  2  1  2  0  0  0  0
  3  2  1  0  0  0  0
  3  4  2  0  0  0  0
  4  5  1  0  0  0  0
  5  7  2  0  0  0  0
  5  6  1  0  0  0  0
  8  4  1  0  0  0  0
  8  9  2  0  0  0  0
 10  9  1  0  0  0  0
 10 11  1  0  0  0  0
 12 23  1  0  0  0  0
 12 11  2  0  0  0  0
 13 12  1  0  0  0  0
 14 13  2  0  0  0  0
 14 15  1  0  0  0  0
 15 10  2  0  0  0  0
 16 15  1  0  0  0  0
 16  8  1  0  0  0  0
 17 16  1  0  0  0  0
 18 17  1  0  0  0  0
 19 18  1  0  0  0  0
 20 19  1  0  0  0  0
 20 21  1  0  0  0  0
 21 22  1  0  0  0  0
 22 17  1  0  0  0  0
 23 25  1  0  0  0  0
 24 23  2  0  0  0  0
 27 32  1  0  0  0  0
 27 26  1  0  0  0  0
 29 28  1  0  0  0  0
 29 30  2  0  0  0  0
 31 30  1  0  0  0  0
 32 31  2  0  0  0  0
 33 34  2  0  0  0  0
 33 32  1  0  0  0  0
 34 29  1  0  0  0  0
 35 33  1  0  0  0  0
 36 35  2  0  0  0  0
 37 36  1  0  0  0  0
 38 37  2  0  0  0  0
 38 40  1  0  0  0  0
 39 38  1  0  0  0  0
 40 41  2  0  0  0  0
 41 35  1  0  0  0  0
M  END
>  <minimizedAffinity>
-7.40751266

$$$$
