
 OpenBabel09122222393D

 41 46  0  0  0  0  0  0  0  0999 V2000
    2.9460   -3.0380    7.4800 C   0  0  0  0  0  0  0  0  0  0  0  0
    2.8280   -1.7200    7.9150 C   0  0  0  0  0  3  0  0  0  0  0  0
    2.6000   -1.4610    9.2690 C   0  0  0  0  0  3  0  0  0  0  0  0
    2.4830   -2.5110   10.1940 C   0  0  0  0  0  0  0  0  0  0  0  0
    2.5580   -3.8240    9.7180 C   0  0  0  0  0  0  0  0  0  0  0  0
    2.4090   -4.8630   10.5520 F   0  0  0  0  0  0  0  0  0  0  0  0
    2.7890   -4.0950    8.3700 C   0  0  0  0  0  3  0  0  0  0  0  0
    2.2050   -2.1860   11.5950 C   0  0  0  0  0  0  0  0  0  0  0  0
    1.1570   -2.6660   12.2370 N   0  0  0  0  0  0  0  0  0  0  0  0
    1.2050   -2.1490   13.5050 C   0  0  0  0  0  0  0  0  0  0  0  0
    0.3340   -2.3600   14.5840 C   0  0  0  0  0  3  0  0  0  0  0  0
    0.5650   -1.7090   15.8120 C   0  0  0  0  0  0  0  0  0  0  0  0
    1.6770   -0.8600   15.9240 C   0  0  0  0  0  3  0  0  0  0  0  0
    2.5570   -0.6340   14.8560 C   0  0  0  0  0  3  0  0  0  0  0  0
    2.2940   -1.2960   13.6490 C   0  0  0  0  0  0  0  0  0  0  0  0
    2.9060   -1.3040   12.4080 N   0  0  0  0  0  0  0  0  0  0  0  0
    4.0250   -0.4590   11.9980 C   0  0  0  0  0  3  0  0  0  0  0  0
    3.5920    0.9660   11.6140 C   0  0  0  0  0  2  0  0  0  0  0  0
    4.7800    1.7960   11.1300 C   0  0  0  0  0  2  0  0  0  0  0  0
    5.9140    1.8040   12.1520 C   0  0  0  0  0  2  0  0  0  0  0  0
    6.3510    0.3880   12.5220 C   0  0  0  0  0  2  0  0  0  0  0  0
    5.1760   -0.4530   13.0180 C   0  0  0  0  0  2  0  0  0  0  0  0
   -0.3690   -1.9180   16.9870 C   0  0  0  0  0  0  0  0  0  0  0  0
   -0.4680   -3.0960   17.4520 O   0  0  0  0  0  1  0  0  0  0  0  0
   -0.9900   -0.8940   17.4190 O   0  0  0  0  0  0  0  0  0  0  0  0
    3.1350   -3.3130    6.1520 O   0  0  0  0  0  0  0  0  0  0  0  0
    4.0150   -4.4360    5.9740 C   0  0  0  0  0  2  0  0  0  0  0  0
    9.0540   -2.7810    3.8490 C   0  0  0  0  0  1  0  0  0  0  0  0
    7.7530   -3.2540    4.4190 C   0  0  0  0  0  0  0  0  0  0  0  0
    6.7920   -3.6160    3.5550 N   0  0  0  0  0  0  0  0  0  0  0  0
    5.6140   -3.9860    4.0930 C   0  0  0  0  0  3  0  0  0  0  0  0
    5.3540   -4.0070    5.4500 C   0  0  0  0  0  0  0  0  0  0  0  0
    6.4180   -3.6320    6.2550 C   0  0  0  0  0  0  0  0  0  0  0  0
    7.6150   -3.2490    5.7550 N   0  0  0  0  0  0  0  0  0  0  0  0
    6.3510   -3.6140    7.7190 C   0  0  0  0  0  0  0  0  0  0  0  0
    6.3560   -2.3970    8.4210 C   0  0  0  0  0  3  0  0  0  0  0  0
    6.2700   -2.3770    9.8160 C   0  0  0  0  0  3  0  0  0  0  0  0
    6.1840   -3.5750   10.5200 C   0  0  0  0  0  0  0  0  0  0  0  0
    6.0720   -3.5540   12.2370 Cl  0  0  0  0  0  0  0  0  0  0  0  0
    6.1870   -4.7940    9.8430 C   0  0  0  0  0  3  0  0  0  0  0  0
    6.2730   -4.8120    8.4490 C   0  0  0  0  0  3  0  0  0  0  0  0
  1  2  2  0  0  0  0
  1  7  1  0  0  0  0
  2  3  1  0  0  0  0
  3  4  2  0  0  0  0
  4  8  1  0  0  0  0
  5  4  1  0  0  0  0
  5  6  1  0  0  0  0
  7  5  2  0  0  0  0
  8  9  2  0  0  0  0
  8 16  1  0  0  0  0
  9 10  1  0  0  0  0
 10 15  2  0  0  0  0
 10 11  1  0  0  0  0
 11 12  2  0  0  0  0
 12 13  1  0  0  0  0
 12 23  1  0  0  0  0
 14 13  2  0  0  0  0
 15 14  1  0  0  0  0
 16 15  1  0  0  0  0
 17 16  1  0  0  0  0
 17 22  1  0  0  0  0
 18 17  1  0  0  0  0
 19 18  1  0  0  0  0
 19 20  1  0  0  0  0
 20 21  1  0  0  0  0
 21 22  1  0  0  0  0
 23 25  2  0  0  0  0
 23 24  1  0  0  0  0
 26  1  1  0  0  0  0
 27 26  1  0  0  0  0
 28 29  1  0  0  0  0
 29 34  1  0  0  0  0
 30 31  1  0  0  0  0
 30 29  2  0  0  0  0
 31 32  2  0  0  0  0
 32 27  1  0  0  0  0
 32 33  1  0  0  0  0
 33 35  1  0  0  0  0
 34 33  2  0  0  0  0
 35 36  2  0  0  0  0
 35 41  1  0  0  0  0
 36 37  1  0  0  0  0
 37 38  2  0  0  0  0
 38 39  1  0  0  0  0
 40 38  1  0  0  0  0
 41 40  2  0  0  0  0
M  END
>  <minimizedAffinity>
-7.70306015

$$$$
