
 OpenBabel09122222393D

 41 46  0  0  0  0  0  0  0  0999 V2000
    4.6770   -3.1410    9.6080 C   0  0  0  0  0  0  0  0  0  0  0  0
    5.2750   -4.2830    9.0810 C   0  0  0  0  0  3  0  0  0  0  0  0
    6.1030   -4.1720    7.9610 C   0  0  0  0  0  3  0  0  0  0  0  0
    6.3330   -2.9250    7.3570 C   0  0  0  0  0  0  0  0  0  0  0  0
    5.6790   -1.8050    7.8810 C   0  0  0  0  0  0  0  0  0  0  0  0
    5.8310   -0.5990    7.3150 F   0  0  0  0  0  0  0  0  0  0  0  0
    4.8550   -1.9030    9.0000 C   0  0  0  0  0  3  0  0  0  0  0  0
    7.1770   -2.8690    6.1610 C   0  0  0  0  0  0  0  0  0  0  0  0
    6.7940   -3.3690    5.0020 N   0  0  0  0  0  0  0  0  0  0  0  0
    7.8240   -3.1550    4.1240 C   0  0  0  0  0  0  0  0  0  0  0  0
    7.9140   -3.4820    2.7620 C   0  0  0  0  0  3  0  0  0  0  0  0
    9.0870   -3.1780    2.0430 C   0  0  0  0  0  0  0  0  0  0  0  0
   10.1440   -2.5460    2.7160 C   0  0  0  0  0  3  0  0  0  0  0  0
   10.0730   -2.2140    4.0760 C   0  0  0  0  0  3  0  0  0  0  0  0
    8.8930   -2.5330    4.7610 C   0  0  0  0  0  0  0  0  0  0  0  0
    8.4770   -2.3860    6.0720 N   0  0  0  0  0  0  0  0  0  0  0  0
    9.2950   -1.9050    7.1830 C   0  0  0  0  0  3  0  0  0  0  0  0
    9.0140   -0.4360    7.5440 C   0  0  0  0  0  2  0  0  0  0  0  0
    9.9350    0.0450    8.6640 C   0  0  0  0  0  2  0  0  0  0  0  0
    9.8570   -0.8650    9.8870 C   0  0  0  0  0  2  0  0  0  0  0  0
   10.1490   -2.3200    9.5280 C   0  0  0  0  0  2  0  0  0  0  0  0
    9.2300   -2.8220    8.4150 C   0  0  0  0  0  2  0  0  0  0  0  0
    9.2060   -3.5310    0.5740 C   0  0  0  0  0  0  0  0  0  0  0  0
    9.8870   -2.7480   -0.1600 O   0  0  0  0  0  0  0  0  0  0  0  0
    8.6110   -4.5850    0.1840 O   0  0  0  0  0  1  0  0  0  0  0  0
    3.8360   -3.2350   10.6850 O   0  0  0  0  0  0  0  0  0  0  0  0
    2.8500   -2.1880   10.6680 C   0  0  0  0  0  2  0  0  0  0  0  0
    1.4430   -0.6060   15.9740 C   0  0  0  0  0  1  0  0  0  0  0  0
    1.7940   -0.9810   14.5680 C   0  0  0  0  0  0  0  0  0  0  0  0
    1.0670   -1.9470   13.9830 N   0  0  0  0  0  0  0  0  0  0  0  0
    1.4380   -2.3020   12.7380 C   0  0  0  0  0  3  0  0  0  0  0  0
    2.5010   -1.7420   12.0560 C   0  0  0  0  0  0  0  0  0  0  0  0
    3.1730   -0.7430   12.7420 C   0  0  0  0  0  0  0  0  0  0  0  0
    2.8370   -0.3600   13.9950 N   0  0  0  0  0  0  0  0  0  0  0  0
    4.3110   -0.0080   12.1800 C   0  0  0  0  0  0  0  0  0  0  0  0
    4.1150    1.2090   11.5070 C   0  0  0  0  0  3  0  0  0  0  0  0
    5.2000    1.9220   10.9890 C   0  0  0  0  0  3  0  0  0  0  0  0
    6.4900    1.4180   11.1350 C   0  0  0  0  0  0  0  0  0  0  0  0
    7.8290    2.2950   10.5040 Cl  0  0  0  0  0  0  0  0  0  0  0  0
    6.7060    0.2070   11.7910 C   0  0  0  0  0  3  0  0  0  0  0  0
    5.6190   -0.5040   12.3070 C   0  0  0  0  0  3  0  0  0  0  0  0
  1 26  1  0  0  0  0
  2  1  1  0  0  0  0
  3  2  2  0  0  0  0
  4  5  2  0  0  0  0
  4  3  1  0  0  0  0
  5  7  1  0  0  0  0
  6  5  1  0  0  0  0
  7  1  2  0  0  0  0
  8  4  1  0  0  0  0
  9  8  2  0  0  0  0
 10 15  1  0  0  0  0
 10  9  1  0  0  0  0
 11 10  2  0  0  0  0
 12 13  2  0  0  0  0
 12 11  1  0  0  0  0
 13 14  1  0  0  0  0
 14 15  2  0  0  0  0
 15 16  1  0  0  0  0
 16  8  1  0  0  0  0
 16 17  1  0  0  0  0
 17 18  1  0  0  0  0
 17 22  1  0  0  0  0
 18 19  1  0  0  0  0
 19 20  1  0  0  0  0
 21 20  1  0  0  0  0
 22 21  1  0  0  0  0
 23 12  1  0  0  0  0
 24 23  2  0  0  0  0
 25 23  1  0  0  0  0
 27 26  1  0  0  0  0
 27 32  1  0  0  0  0
 29 28  1  0  0  0  0
 30 29  2  0  0  0  0
 31 30  1  0  0  0  0
 32 31  2  0  0  0  0
 32 33  1  0  0  0  0
 33 34  2  0  0  0  0
 34 29  1  0  0  0  0
 35 41  1  0  0  0  0
 35 33  1  0  0  0  0
 36 35  2  0  0  0  0
 37 38  2  0  0  0  0
 37 36  1  0  0  0  0
 38 40  1  0  0  0  0
 39 38  1  0  0  0  0
 40 41  2  0  0  0  0
M  END
>  <minimizedAffinity>
-7.27218914

$$$$
