
 OpenBabel09122222393D

 39 44  0  0  0  0  0  0  0  0999 V2000
    4.0700   -3.0710    5.7780 C   0  0  0  0  0  0  0  0  0  0  0  0
    2.7940   -2.6370    6.1500 C   0  0  0  0  0  3  0  0  0  0  0  0
    2.6440   -1.6920    7.1690 C   0  0  0  0  0  3  0  0  0  0  0  0
    3.7580   -1.1830    7.8430 C   0  0  0  0  0  0  0  0  0  0  0  0
    5.0290   -1.6220    7.4810 C   0  0  0  0  0  3  0  0  0  0  0  0
    5.1810   -2.5670    6.4600 C   0  0  0  0  0  3  0  0  0  0  0  0
    5.1590   -6.5210    1.0060 C   0  0  0  0  0  0  0  0  0  0  0  0
    4.7900   -7.5700    1.8630 C   0  0  0  0  0  3  0  0  0  0  0  0
    4.3920   -7.3480    3.1880 C   0  0  0  0  0  3  0  0  0  0  0  0
    4.3720   -6.0250    3.6450 C   0  0  0  0  0  0  0  0  0  0  0  0
    4.7390   -4.9600    2.8260 C   0  0  0  0  0  0  0  0  0  0  0  0
    5.1320   -5.2020    1.5000 C   0  0  0  0  0  3  0  0  0  0  0  0
    4.6430   -3.7700    3.5010 N   0  0  0  0  0  0  0  0  0  0  0  0
    4.2600   -4.0690    4.7260 C   0  0  0  0  0  0  0  0  0  0  0  0
    4.0270   -5.4310    4.8430 N   0  0  0  0  0  0  0  0  0  0  0  0
    3.4520   -6.1000    6.0080 C   0  0  0  0  0  3  0  0  0  0  0  0
    4.1210   -5.6860    7.3300 C   0  0  0  0  0  2  0  0  0  0  0  0
    3.5260   -6.4480    8.5150 C   0  0  0  0  0  2  0  0  0  0  0  0
    2.0090   -6.3000    8.5740 C   0  0  0  0  0  2  0  0  0  0  0  0
    1.3480   -6.7290    7.2660 C   0  0  0  0  0  2  0  0  0  0  0  0
    1.9220   -5.9740    6.0680 C   0  0  0  0  0  2  0  0  0  0  0  0
    5.2010   -7.9120   -0.9260 O   0  0  0  0  0  1  0  0  0  0  0  0
    5.5750   -6.8040   -0.4240 C   0  0  0  0  0  0  0  0  0  0  0  0
    6.2650   -5.9160   -1.0170 O   0  0  0  0  0  0  0  0  0  0  0  0
    3.4610   -0.2760    8.8200 O   0  0  0  0  0  0  0  0  0  0  0  0
    4.2000   -0.2970   10.0400 C   0  0  0  0  0  2  0  0  0  0  0  0
    3.7050   -1.3120   11.0440 C   0  0  0  0  0  0  0  0  0  0  0  0
    2.4350   -1.1540   11.6170 C   0  0  0  0  0  3  0  0  0  0  0  0
    1.9670   -2.0730   12.5490 C   0  0  0  0  0  3  0  0  0  0  0  0
    2.7820   -3.1400   12.8730 C   0  0  0  0  0  3  0  0  0  0  0  0
    3.9970   -3.3450   12.3280 N   0  0  0  0  0  0  0  0  0  0  0  0
    4.4530   -2.4340   11.4270 C   0  0  0  0  0  0  0  0  0  0  0  0
    5.7870   -2.7480   10.9010 C   0  0  0  0  0  0  0  0  0  0  0  0
    6.8960   -1.9670   11.2690 C   0  0  0  0  0  3  0  0  0  0  0  0
    8.1710   -2.2500   10.7740 C   0  0  0  0  0  3  0  0  0  0  0  0
    8.3500   -3.3290    9.9100 C   0  0  0  0  0  0  0  0  0  0  0  0
    9.9190   -3.6850    9.2980 Cl  0  0  0  0  0  0  0  0  0  0  0  0
    7.2670   -4.1270    9.5440 C   0  0  0  0  0  3  0  0  0  0  0  0
    5.9920   -3.8380   10.0390 C   0  0  0  0  0  3  0  0  0  0  0  0
  1  2  2  0  0  0  0
  1  6  1  0  0  0  0
  2  3  1  0  0  0  0
  3  4  2  0  0  0  0
  4 25  1  0  0  0  0
  5  4  1  0  0  0  0
  6  5  2  0  0  0  0
  7 12  2  0  0  0  0
  7  8  1  0  0  0  0
  8  9  2  0  0  0  0
  9 10  1  0  0  0  0
 10 15  1  0  0  0  0
 11 13  1  0  0  0  0
 11 10  2  0  0  0  0
 12 11  1  0  0  0  0
 13 14  2  0  0  0  0
 14 15  1  0  0  0  0
 14  1  1  0  0  0  0
 15 16  1  0  0  0  0
 16 21  1  0  0  0  0
 16 17  1  0  0  0  0
 17 18  1  0  0  0  0
 18 19  1  0  0  0  0
 20 19  1  0  0  0  0
 21 20  1  0  0  0  0
 22 23  1  0  0  0  0
 23  7  1  0  0  0  0
 24 23  2  0  0  0  0
 25 26  1  0  0  0  0
 26 27  1  0  0  0  0
 27 32  2  0  0  0  0
 27 28  1  0  0  0  0
 28 29  2  0  0  0  0
 29 30  1  0  0  0  0
 31 30  2  0  0  0  0
 32 31  1  0  0  0  0
 33 34  1  0  0  0  0
 33 32  1  0  0  0  0
 35 34  2  0  0  0  0
 36 35  1  0  0  0  0
 37 36  1  0  0  0  0
 38 36  2  0  0  0  0
 38 39  1  0  0  0  0
 39 33  2  0  0  0  0
M  END
>  <minimizedAffinity>
-8.01220512

$$$$
