
 OpenBabel09122222393D

 39 44  0  0  0  0  0  0  0  0999 V2000
    3.8180   -3.1820    5.3720 C   0  0  0  0  0  0  0  0  0  0  0  0
    2.5530   -2.6190    5.5650 C   0  0  0  0  0  3  0  0  0  0  0  0
    2.3580   -1.6560    6.5580 C   0  0  0  0  0  3  0  0  0  0  0  0
    3.4130   -1.2550    7.3840 C   0  0  0  0  0  0  0  0  0  0  0  0
    4.6720   -1.8220    7.2000 C   0  0  0  0  0  3  0  0  0  0  0  0
    4.8690   -2.7860    6.2050 C   0  0  0  0  0  3  0  0  0  0  0  0
    5.1040   -6.7350    0.7270 C   0  0  0  0  0  0  0  0  0  0  0  0
    4.7030   -7.7660    1.5910 C   0  0  0  0  0  3  0  0  0  0  0  0
    4.2510   -7.5150    2.8930 C   0  0  0  0  0  3  0  0  0  0  0  0
    4.2120   -6.1820    3.3200 C   0  0  0  0  0  0  0  0  0  0  0  0
    4.6090   -5.1340    2.4920 C   0  0  0  0  0  0  0  0  0  0  0  0
    5.0560   -5.4060    1.1890 C   0  0  0  0  0  3  0  0  0  0  0  0
    4.4840   -3.9300    3.1360 N   0  0  0  0  0  0  0  0  0  0  0  0
    4.0530   -4.2030    4.3510 C   0  0  0  0  0  0  0  0  0  0  0  0
    3.8170   -5.5630    4.4900 N   0  0  0  0  0  0  0  0  0  0  0  0
    3.1960   -6.2070    5.6450 C   0  0  0  0  0  3  0  0  0  0  0  0
    3.8200   -5.7720    6.9820 C   0  0  0  0  0  2  0  0  0  0  0  0
    3.1780   -6.5080    8.1590 C   0  0  0  0  0  2  0  0  0  0  0  0
    1.6610   -6.3510    8.1600 C   0  0  0  0  0  2  0  0  0  0  0  0
    1.0450   -6.8010    6.8370 C   0  0  0  0  0  2  0  0  0  0  0  0
    1.6660   -6.0710    5.6480 C   0  0  0  0  0  2  0  0  0  0  0  0
    6.2200   -6.1340   -1.2890 O   0  0  0  0  0  0  0  0  0  0  0  0
    5.5790   -7.0480   -0.6790 C   0  0  0  0  0  0  0  0  0  0  0  0
    5.3050   -8.1990   -1.1450 O   0  0  0  0  0  1  0  0  0  0  0  0
    3.0750   -0.3150    8.3150 O   0  0  0  0  0  0  0  0  0  0  0  0
    2.2950   -0.7010    9.4460 C   0  0  0  0  0  2  0  0  0  0  0  0
    2.9300   -1.7780   10.2940 C   0  0  0  0  0  0  0  0  0  0  0  0
    2.3540   -3.0560   10.3340 C   0  0  0  0  0  3  0  0  0  0  0  0
    2.9200   -4.0560   11.1170 C   0  0  0  0  0  3  0  0  0  0  0  0
    4.0620   -3.7520   11.8310 C   0  0  0  0  0  3  0  0  0  0  0  0
    4.6640   -2.5460   11.8020 N   0  0  0  0  0  0  0  0  0  0  0  0
    4.0960   -1.5700   11.0440 C   0  0  0  0  0  0  0  0  0  0  0  0
    4.8260   -0.2960   11.0880 C   0  0  0  0  0  0  0  0  0  0  0  0
    4.3490    0.7660   11.8740 C   0  0  0  0  0  3  0  0  0  0  0  0
    5.0300    1.9850   11.9240 C   0  0  0  0  0  3  0  0  0  0  0  0
    6.2030    2.1480   11.1910 C   0  0  0  0  0  0  0  0  0  0  0  0
    7.0470    3.6470   11.2490 Cl  0  0  0  0  0  0  0  0  0  0  0  0
    6.7020    1.1030   10.4160 C   0  0  0  0  0  3  0  0  0  0  0  0
    6.0170   -0.1140   10.3670 C   0  0  0  0  0  3  0  0  0  0  0  0
  1  2  2  0  0  0  0
  1  6  1  0  0  0  0
  2  3  1  0  0  0  0
  3  4  2  0  0  0  0
  4 25  1  0  0  0  0
  5  4  1  0  0  0  0
  6  5  2  0  0  0  0
  7 12  2  0  0  0  0
  7  8  1  0  0  0  0
  8  9  2  0  0  0  0
  9 10  1  0  0  0  0
 10 15  1  0  0  0  0
 11 13  1  0  0  0  0
 11 10  2  0  0  0  0
 12 11  1  0  0  0  0
 13 14  2  0  0  0  0
 14 15  1  0  0  0  0
 14  1  1  0  0  0  0
 15 16  1  0  0  0  0
 16 21  1  0  0  0  0
 16 17  1  0  0  0  0
 17 18  1  0  0  0  0
 18 19  1  0  0  0  0
 20 19  1  0  0  0  0
 21 20  1  0  0  0  0
 22 23  2  0  0  0  0
 23  7  1  0  0  0  0
 24 23  1  0  0  0  0
 25 26  1  0  0  0  0
 26 27  1  0  0  0  0
 27 28  2  0  0  0  0
 27 32  1  0  0  0  0
 28 29  1  0  0  0  0
 29 30  2  0  0  0  0
 31 30  1  0  0  0  0
 32 33  1  0  0  0  0
 32 31  2  0  0  0  0
 33 34  1  0  0  0  0
 34 35  2  0  0  0  0
 36 37  1  0  0  0  0
 36 35  1  0  0  0  0
 38 36  2  0  0  0  0
 39 38  1  0  0  0  0
 39 33  2  0  0  0  0
M  END
>  <minimizedAffinity>
-8.32226753

$$$$
