
 OpenBabel09122222393D

 39 44  0  0  0  0  0  0  0  0999 V2000
    9.4490   -2.3380    3.4320 C   0  0  0  0  0  0  0  0  0  0  0  0
    9.3490   -0.9480    3.3380 C   0  0  0  0  0  3  0  0  0  0  0  0
    9.9450   -0.1340    4.3050 C   0  0  0  0  0  3  0  0  0  0  0  0
   10.6310   -0.6940    5.3880 C   0  0  0  0  0  0  0  0  0  0  0  0
   10.7230   -2.0800    5.4890 C   0  0  0  0  0  3  0  0  0  0  0  0
   10.1270   -2.8960    4.5200 C   0  0  0  0  0  3  0  0  0  0  0  0
    6.3200   -6.1130   -0.0060 C   0  0  0  0  0  0  0  0  0  0  0  0
    7.1880   -5.6790   -1.0200 C   0  0  0  0  0  3  0  0  0  0  0  0
    8.2080   -4.7480   -0.7830 C   0  0  0  0  0  3  0  0  0  0  0  0
    8.3410   -4.2510    0.5200 C   0  0  0  0  0  0  0  0  0  0  0  0
    7.4930   -4.6540    1.5490 C   0  0  0  0  0  0  0  0  0  0  0  0
    6.4790   -5.5900    1.2920 C   0  0  0  0  0  3  0  0  0  0  0  0
    7.8190   -4.0250    2.7230 N   0  0  0  0  0  0  0  0  0  0  0  0
    8.8230   -3.2180    2.4450 C   0  0  0  0  0  0  0  0  0  0  0  0
    9.2130   -3.3660    1.1220 N   0  0  0  0  0  0  0  0  0  0  0  0
   10.3830   -2.7460    0.5040 C   0  0  0  0  0  3  0  0  0  0  0  0
   11.4270   -3.7710    0.0300 C   0  0  0  0  0  2  0  0  0  0  0  0
   12.6560   -3.0790   -0.5600 C   0  0  0  0  0  2  0  0  0  0  0  0
   12.2730   -2.1030   -1.6680 C   0  0  0  0  0  2  0  0  0  0  0  0
   11.2500   -1.0760   -1.1880 C   0  0  0  0  0  2  0  0  0  0  0  0
   10.0090   -1.7460   -0.6020 C   0  0  0  0  0  2  0  0  0  0  0  0
    5.4470   -7.9380   -1.2620 O   0  0  0  0  0  0  0  0  0  0  0  0
    5.2340   -7.1290   -0.3030 C   0  0  0  0  0  0  0  0  0  0  0  0
    4.1920   -7.1000    0.4250 O   0  0  0  0  0  1  0  0  0  0  0  0
   11.1540    0.2190    6.2580 O   0  0  0  0  0  0  0  0  0  0  0  0
   10.3630    0.6670    7.3580 C   0  0  0  0  0  2  0  0  0  0  0  0
   10.5480   -0.1430    8.6200 C   0  0  0  0  0  0  0  0  0  0  0  0
   11.7160    0.0200    9.3810 C   0  0  0  0  0  3  0  0  0  0  0  0
   11.9060   -0.7240   10.5390 C   0  0  0  0  0  3  0  0  0  0  0  0
   10.9110   -1.6030   10.9180 C   0  0  0  0  0  3  0  0  0  0  0  0
    9.7620   -1.7710   10.2330 N   0  0  0  0  0  0  0  0  0  0  0  0
    9.5890   -1.0500    9.0920 C   0  0  0  0  0  0  0  0  0  0  0  0
    8.3100   -1.3140    8.4220 C   0  0  0  0  0  0  0  0  0  0  0  0
    8.1320   -2.4890    7.6730 C   0  0  0  0  0  3  0  0  0  0  0  0
    6.9230   -2.7520    7.0260 C   0  0  0  0  0  3  0  0  0  0  0  0
    5.8740   -1.8420    7.1300 C   0  0  0  0  0  0  0  0  0  0  0  0
    4.3800   -2.1610    6.3370 Cl  0  0  0  0  0  0  0  0  0  0  0  0
    6.0230   -0.6760    7.8800 C   0  0  0  0  0  3  0  0  0  0  0  0
    7.2350   -0.4150    8.5240 C   0  0  0  0  0  3  0  0  0  0  0  0
  1  6  1  0  0  0  0
  2  1  2  0  0  0  0
  2  3  1  0  0  0  0
  3  4  2  0  0  0  0
  4  5  1  0  0  0  0
  4 25  1  0  0  0  0
  6  5  2  0  0  0  0
  7 12  1  0  0  0  0
  8  9  1  0  0  0  0
  8  7  2  0  0  0  0
  9 10  2  0  0  0  0
 10 15  1  0  0  0  0
 10 11  1  0  0  0  0
 11 13  1  0  0  0  0
 12 11  2  0  0  0  0
 14 13  2  0  0  0  0
 14  1  1  0  0  0  0
 15 14  1  0  0  0  0
 16 15  1  0  0  0  0
 17 16  1  0  0  0  0
 18 17  1  0  0  0  0
 19 20  1  0  0  0  0
 19 18  1  0  0  0  0
 20 21  1  0  0  0  0
 21 16  1  0  0  0  0
 22 23  2  0  0  0  0
 23  7  1  0  0  0  0
 23 24  1  0  0  0  0
 25 26  1  0  0  0  0
 26 27  1  0  0  0  0
 27 32  2  0  0  0  0
 27 28  1  0  0  0  0
 28 29  2  0  0  0  0
 29 30  1  0  0  0  0
 31 30  2  0  0  0  0
 32 31  1  0  0  0  0
 33 39  1  0  0  0  0
 33 32  1  0  0  0  0
 34 33  2  0  0  0  0
 35 36  2  0  0  0  0
 35 34  1  0  0  0  0
 36 38  1  0  0  0  0
 37 36  1  0  0  0  0
 38 39  2  0  0  0  0
M  END
>  <minimizedAffinity>
-8.67286682

$$$$
