
 OpenBabel09122222393D

 39 44  0  0  0  0  0  0  0  0999 V2000
    7.1240   -2.4170    6.9910 C   0  0  0  0  0  0  0  0  0  0  0  0
    6.2790   -1.3530    7.3190 C   0  0  0  0  0  3  0  0  0  0  0  0
    5.6850   -1.2940    8.5830 C   0  0  0  0  0  3  0  0  0  0  0  0
    5.9070   -2.3020    9.5260 C   0  0  0  0  0  0  0  0  0  0  0  0
    6.7400   -3.3690    9.1970 C   0  0  0  0  0  3  0  0  0  0  0  0
    7.3370   -3.4280    7.9320 C   0  0  0  0  0  3  0  0  0  0  0  0
    9.0740   -3.3760    1.4100 C   0  0  0  0  0  0  0  0  0  0  0  0
    9.9770   -2.3420    1.7040 C   0  0  0  0  0  3  0  0  0  0  0  0
   10.0020   -1.7040    2.9510 C   0  0  0  0  0  3  0  0  0  0  0  0
    9.0840   -2.1320    3.9170 C   0  0  0  0  0  0  0  0  0  0  0  0
    8.1680   -3.1500    3.6580 C   0  0  0  0  0  0  0  0  0  0  0  0
    8.1600   -3.7790    2.4030 C   0  0  0  0  0  3  0  0  0  0  0  0
    7.3760   -3.3830    4.7530 N   0  0  0  0  0  0  0  0  0  0  0  0
    7.7510   -2.5160    5.6720 C   0  0  0  0  0  0  0  0  0  0  0  0
    8.8310   -1.7690    5.2250 N   0  0  0  0  0  0  0  0  0  0  0  0
    9.6010   -0.8210    6.0260 C   0  0  0  0  0  3  0  0  0  0  0  0
   10.6750   -1.5000    6.8940 C   0  0  0  0  0  2  0  0  0  0  0  0
   11.4200   -0.4800    7.7540 C   0  0  0  0  0  2  0  0  0  0  0  0
   12.0020    0.6500    6.9100 C   0  0  0  0  0  2  0  0  0  0  0  0
   10.9300    1.3330    6.0630 C   0  0  0  0  0  2  0  0  0  0  0  0
   10.1780    0.3310    5.1880 C   0  0  0  0  0  2  0  0  0  0  0  0
    8.5150   -5.1800   -0.0390 O   0  0  0  0  0  1  0  0  0  0  0  0
    9.0850   -4.0460    0.0500 C   0  0  0  0  0  0  0  0  0  0  0  0
    9.6600   -3.4290   -0.9010 O   0  0  0  0  0  0  0  0  0  0  0  0
    5.2550   -2.1190   10.7120 O   0  0  0  0  0  0  0  0  0  0  0  0
    4.0320   -1.3830   10.7290 C   0  0  0  0  0  2  0  0  0  0  0  0
    2.8120   -2.2220   11.0270 C   0  0  0  0  0  0  0  0  0  0  0  0
    2.3550   -2.3340   12.3490 C   0  0  0  0  0  3  0  0  0  0  0  0
    1.2400   -3.1090   12.6420 C   0  0  0  0  0  3  0  0  0  0  0  0
    0.5970   -3.7430   11.5970 C   0  0  0  0  0  3  0  0  0  0  0  0
    0.9840   -3.6420   10.3090 N   0  0  0  0  0  0  0  0  0  0  0  0
    2.0850   -2.8930   10.0330 C   0  0  0  0  0  0  0  0  0  0  0  0
    2.4240   -2.8550    8.6050 C   0  0  0  0  0  0  0  0  0  0  0  0
    3.0660   -3.9490    8.0000 C   0  0  0  0  0  3  0  0  0  0  0  0
    3.3980   -3.9270    6.6440 C   0  0  0  0  0  3  0  0  0  0  0  0
    3.0810   -2.8100    5.8750 C   0  0  0  0  0  0  0  0  0  0  0  0
    3.4860   -2.7770    4.2030 Cl  0  0  0  0  0  0  0  0  0  0  0  0
    2.4320   -1.7190    6.4510 C   0  0  0  0  0  3  0  0  0  0  0  0
    2.1030   -1.7430    7.8090 C   0  0  0  0  0  3  0  0  0  0  0  0
  1  2  2  0  0  0  0
  1  6  1  0  0  0  0
  2  3  1  0  0  0  0
  3  4  2  0  0  0  0
  4 25  1  0  0  0  0
  5  4  1  0  0  0  0
  6  5  2  0  0  0  0
  7  8  2  0  0  0  0
  7 12  1  0  0  0  0
  8  9  1  0  0  0  0
  9 10  2  0  0  0  0
 10 15  1  0  0  0  0
 11 10  1  0  0  0  0
 11 13  1  0  0  0  0
 12 11  2  0  0  0  0
 13 14  2  0  0  0  0
 14  1  1  0  0  0  0
 15 14  1  0  0  0  0
 15 16  1  0  0  0  0
 16 17  1  0  0  0  0
 17 18  1  0  0  0  0
 19 18  1  0  0  0  0
 20 19  1  0  0  0  0
 21 16  1  0  0  0  0
 21 20  1  0  0  0  0
 22 23  1  0  0  0  0
 23  7  1  0  0  0  0
 24 23  2  0  0  0  0
 25 26  1  0  0  0  0
 26 27  1  0  0  0  0
 27 28  1  0  0  0  0
 28 29  2  0  0  0  0
 30 29  1  0  0  0  0
 31 30  2  0  0  0  0
 32 31  1  0  0  0  0
 32 27  2  0  0  0  0
 33 32  1  0  0  0  0
 34 33  1  0  0  0  0
 35 34  2  0  0  0  0
 36 38  2  0  0  0  0
 36 35  1  0  0  0  0
 37 36  1  0  0  0  0
 38 39  1  0  0  0  0
 39 33  2  0  0  0  0
M  END
>  <minimizedAffinity>
-8.58320904

$$$$
