
 OpenBabel09122222393D

 39 44  0  0  0  0  0  0  0  0999 V2000
    3.7730   -3.1510    5.4290 C   0  0  0  0  0  0  0  0  0  0  0  0
    4.7770   -2.7300    6.3050 C   0  0  0  0  0  3  0  0  0  0  0  0
    4.5030   -1.7600    7.2730 C   0  0  0  0  0  3  0  0  0  0  0  0
    3.2330   -1.1820    7.3670 C   0  0  0  0  0  0  0  0  0  0  0  0
    2.2330   -1.5930    6.4880 C   0  0  0  0  0  3  0  0  0  0  0  0
    2.5060   -2.5660    5.5200 C   0  0  0  0  0  3  0  0  0  0  0  0
    5.1560   -6.6200    0.7470 C   0  0  0  0  0  0  0  0  0  0  0  0
    4.7500   -7.6670    1.5890 C   0  0  0  0  0  3  0  0  0  0  0  0
    4.2770   -7.4410    2.8880 C   0  0  0  0  0  3  0  0  0  0  0  0
    4.2200   -6.1150    3.3350 C   0  0  0  0  0  0  0  0  0  0  0  0
    4.6220   -5.0510    2.5300 C   0  0  0  0  0  0  0  0  0  0  0  0
    5.0900   -5.2980    1.2300 C   0  0  0  0  0  3  0  0  0  0  0  0
    4.4780   -3.8590    3.1920 N   0  0  0  0  0  0  0  0  0  0  0  0
    4.0310   -4.1540    4.3960 C   0  0  0  0  0  0  0  0  0  0  0  0
    3.8040   -5.5180    4.5090 N   0  0  0  0  0  0  0  0  0  0  0  0
    3.1700   -6.1850    5.6440 C   0  0  0  0  0  3  0  0  0  0  0  0
    3.7820   -5.7810    6.9960 C   0  0  0  0  0  2  0  0  0  0  0  0
    3.1280   -6.5410    8.1500 C   0  0  0  0  0  2  0  0  0  0  0  0
    1.6110   -6.3800    8.1410 C   0  0  0  0  0  2  0  0  0  0  0  0
    1.0060   -6.8000    6.8030 C   0  0  0  0  0  2  0  0  0  0  0  0
    1.6400   -6.0460    5.6350 C   0  0  0  0  0  2  0  0  0  0  0  0
    6.3250   -5.9890   -1.2290 O   0  0  0  0  0  0  0  0  0  0  0  0
    5.6540   -6.9060   -0.6560 C   0  0  0  0  0  0  0  0  0  0  0  0
    5.3680   -8.0390   -1.1570 O   0  0  0  0  0  1  0  0  0  0  0  0
    3.1120   -0.2430    8.3510 O   0  0  0  0  0  0  0  0  0  0  0  0
    2.7570   -0.6560    9.6700 C   0  0  0  0  0  2  0  0  0  0  0  0
    3.7600   -0.2660   10.7300 C   0  0  0  0  0  0  0  0  0  0  0  0
    4.1710    1.0710   10.8340 C   0  0  0  0  0  3  0  0  0  0  0  0
    5.1010    1.4450   11.7970 C   0  0  0  0  0  3  0  0  0  0  0  0
    5.5840    0.4690   12.6460 C   0  0  0  0  0  3  0  0  0  0  0  0
    5.1980   -0.8220   12.5990 N   0  0  0  0  0  0  0  0  0  0  0  0
    4.2980   -1.1820   11.6450 C   0  0  0  0  0  0  0  0  0  0  0  0
    3.9510   -2.6080   11.6770 C   0  0  0  0  0  0  0  0  0  0  0  0
    4.7660   -3.5510   11.0270 C   0  0  0  0  0  3  0  0  0  0  0  0
    4.4460   -4.9100   11.0450 C   0  0  0  0  0  3  0  0  0  0  0  0
    3.3100   -5.3420   11.7250 C   0  0  0  0  0  0  0  0  0  0  0  0
    2.9120   -7.0160   11.7520 Cl  0  0  0  0  0  0  0  0  0  0  0  0
    2.4950   -4.4270   12.3890 C   0  0  0  0  0  3  0  0  0  0  0  0
    2.8160   -3.0660   12.3670 C   0  0  0  0  0  3  0  0  0  0  0  0
  1  6  2  0  0  0  0
  1  2  1  0  0  0  0
  2  3  2  0  0  0  0
  3  4  1  0  0  0  0
  4 25  1  0  0  0  0
  5  4  2  0  0  0  0
  6  5  1  0  0  0  0
  7 12  2  0  0  0  0
  7  8  1  0  0  0  0
  8  9  2  0  0  0  0
  9 10  1  0  0  0  0
 10 15  1  0  0  0  0
 11 13  1  0  0  0  0
 11 10  2  0  0  0  0
 12 11  1  0  0  0  0
 13 14  2  0  0  0  0
 14 15  1  0  0  0  0
 14  1  1  0  0  0  0
 15 16  1  0  0  0  0
 16 17  1  0  0  0  0
 17 18  1  0  0  0  0
 19 18  1  0  0  0  0
 20 19  1  0  0  0  0
 21 16  1  0  0  0  0
 21 20  1  0  0  0  0
 22 23  2  0  0  0  0
 23  7  1  0  0  0  0
 24 23  1  0  0  0  0
 25 26  1  0  0  0  0
 26 27  1  0  0  0  0
 27 28  2  0  0  0  0
 27 32  1  0  0  0  0
 28 29  1  0  0  0  0
 29 30  2  0  0  0  0
 31 30  1  0  0  0  0
 32 33  1  0  0  0  0
 32 31  2  0  0  0  0
 33 39  1  0  0  0  0
 34 35  1  0  0  0  0
 34 33  2  0  0  0  0
 35 36  2  0  0  0  0
 36 37  1  0  0  0  0
 36 38  1  0  0  0  0
 39 38  2  0  0  0  0
M  END
>  <minimizedAffinity>
-8.67878246

$$$$
