
 OpenBabel09122222393D

 39 44  0  0  0  0  0  0  0  0999 V2000
    3.8160   -3.1390    5.5870 C   0  0  0  0  0  0  0  0  0  0  0  0
    2.5530   -2.6090    5.8670 C   0  0  0  0  0  3  0  0  0  0  0  0
    2.3970   -1.6690    6.8890 C   0  0  0  0  0  3  0  0  0  0  0  0
    3.4900   -1.2610    7.6600 C   0  0  0  0  0  0  0  0  0  0  0  0
    4.7480   -1.7970    7.3900 C   0  0  0  0  0  3  0  0  0  0  0  0
    4.9060   -2.7370    6.3650 C   0  0  0  0  0  3  0  0  0  0  0  0
    5.0320   -6.6070    0.8590 C   0  0  0  0  0  0  0  0  0  0  0  0
    4.4690   -7.6250    1.6450 C   0  0  0  0  0  3  0  0  0  0  0  0
    3.9610   -7.3840    2.9280 C   0  0  0  0  0  3  0  0  0  0  0  0
    4.0310   -6.0740    3.4170 C   0  0  0  0  0  0  0  0  0  0  0  0
    4.5890   -5.0400    2.6680 C   0  0  0  0  0  0  0  0  0  0  0  0
    5.0900   -5.3010    1.3830 C   0  0  0  0  0  3  0  0  0  0  0  0
    4.5470   -3.8580    3.3620 N   0  0  0  0  0  0  0  0  0  0  0  0
    4.0100   -4.1350    4.5340 C   0  0  0  0  0  0  0  0  0  0  0  0
    3.6260   -5.4670    4.5890 N   0  0  0  0  0  0  0  0  0  0  0  0
    2.8660   -6.0900    5.6710 C   0  0  0  0  0  3  0  0  0  0  0  0
    1.3930   -6.3360    5.3060 C   0  0  0  0  0  2  0  0  0  0  0  0
    0.6230   -6.9380    6.4810 C   0  0  0  0  0  2  0  0  0  0  0  0
    1.2980   -8.2010    7.0070 C   0  0  0  0  0  2  0  0  0  0  0  0
    2.7550   -7.9470    7.3860 C   0  0  0  0  0  2  0  0  0  0  0  0
    3.5460   -7.3530    6.2210 C   0  0  0  0  0  2  0  0  0  0  0  0
    6.2380   -5.9930   -1.0990 O   0  0  0  0  0  0  0  0  0  0  0  0
    5.5630   -6.9090   -0.5290 C   0  0  0  0  0  0  0  0  0  0  0  0
    5.2990   -8.0510   -1.0200 O   0  0  0  0  0  1  0  0  0  0  0  0
    3.1890   -0.3470    8.6280 O   0  0  0  0  0  0  0  0  0  0  0  0
    2.8530   -0.8030    9.9380 C   0  0  0  0  0  2  0  0  0  0  0  0
    4.0200   -1.3660   10.7140 C   0  0  0  0  0  0  0  0  0  0  0  0
    5.0860   -0.5240   11.0670 C   0  0  0  0  0  3  0  0  0  0  0  0
    6.1720   -1.0270   11.7720 C   0  0  0  0  0  3  0  0  0  0  0  0
    6.1570   -2.3620   12.1220 C   0  0  0  0  0  3  0  0  0  0  0  0
    5.1440   -3.2010   11.8270 N   0  0  0  0  0  0  0  0  0  0  0  0
    4.0900   -2.7050   11.1240 C   0  0  0  0  0  0  0  0  0  0  0  0
    3.0470   -3.7010   10.8510 C   0  0  0  0  0  0  0  0  0  0  0  0
    2.1620   -4.0970   11.8670 C   0  0  0  0  0  3  0  0  0  0  0  0
    1.1670   -5.0470   11.6230 C   0  0  0  0  0  3  0  0  0  0  0  0
    1.0440   -5.6040   10.3520 C   0  0  0  0  0  0  0  0  0  0  0  0
   -0.1810   -6.7730   10.0450 Cl  0  0  0  0  0  0  0  0  0  0  0  0
    1.9020   -5.2150    9.3250 C   0  0  0  0  0  3  0  0  0  0  0  0
    2.8980   -4.2660    9.5740 C   0  0  0  0  0  3  0  0  0  0  0  0
  1  2  2  0  0  0  0
  1  6  1  0  0  0  0
  2  3  1  0  0  0  0
  3  4  2  0  0  0  0
  4 25  1  0  0  0  0
  5  4  1  0  0  0  0
  6  5  2  0  0  0  0
  7 12  2  0  0  0  0
  7  8  1  0  0  0  0
  8  9  2  0  0  0  0
  9 10  1  0  0  0  0
 10 15  1  0  0  0  0
 11 13  1  0  0  0  0
 11 10  2  0  0  0  0
 12 11  1  0  0  0  0
 13 14  2  0  0  0  0
 14 15  1  0  0  0  0
 14  1  1  0  0  0  0
 15 16  1  0  0  0  0
 16 21  1  0  0  0  0
 17 16  1  0  0  0  0
 17 18  1  0  0  0  0
 18 19  1  0  0  0  0
 19 20  1  0  0  0  0
 21 20  1  0  0  0  0
 22 23  2  0  0  0  0
 23  7  1  0  0  0  0
 24 23  1  0  0  0  0
 25 26  1  0  0  0  0
 26 27  1  0  0  0  0
 27 28  2  0  0  0  0
 27 32  1  0  0  0  0
 28 29  1  0  0  0  0
 29 30  2  0  0  0  0
 31 30  1  0  0  0  0
 32 31  2  0  0  0  0
 33 32  1  0  0  0  0
 33 34  1  0  0  0  0
 35 34  2  0  0  0  0
 36 35  1  0  0  0  0
 37 36  1  0  0  0  0
 38 39  1  0  0  0  0
 38 36  2  0  0  0  0
 39 33  2  0  0  0  0
M  END
>  <minimizedAffinity>
-8.55981445

$$$$
