
 OpenBabel09122222393D

 39 44  0  0  0  0  0  0  0  0999 V2000
    9.4810   -1.9110    3.3100 C   0  0  0  0  0  0  0  0  0  0  0  0
    9.4480   -0.5480    3.0000 C   0  0  0  0  0  3  0  0  0  0  0  0
   10.0020    0.3850    3.8810 C   0  0  0  0  0  3  0  0  0  0  0  0
   10.5760   -0.0230    5.0890 C   0  0  0  0  0  0  0  0  0  0  0  0
   10.5990   -1.3790    5.4050 C   0  0  0  0  0  3  0  0  0  0  0  0
   10.0470   -2.3160    4.5230 C   0  0  0  0  0  3  0  0  0  0  0  0
    6.5190   -6.1320    0.2660 C   0  0  0  0  0  0  0  0  0  0  0  0
    7.3920   -5.7860   -0.7770 C   0  0  0  0  0  3  0  0  0  0  0  0
    8.3800   -4.8040   -0.6300 C   0  0  0  0  0  3  0  0  0  0  0  0
    8.4770   -4.1640    0.6110 C   0  0  0  0  0  0  0  0  0  0  0  0
    7.6240   -4.4770    1.6670 C   0  0  0  0  0  0  0  0  0  0  0  0
    6.6410   -5.4650    1.5010 C   0  0  0  0  0  3  0  0  0  0  0  0
    7.9120   -3.7130    2.7690 N   0  0  0  0  0  0  0  0  0  0  0  0
    8.8970   -2.9120    2.4170 C   0  0  0  0  0  0  0  0  0  0  0  0
    9.3140   -3.1920    1.1240 N   0  0  0  0  0  0  0  0  0  0  0  0
   10.4750   -2.6080    0.4580 C   0  0  0  0  0  3  0  0  0  0  0  0
   11.5070   -3.6600    0.0170 C   0  0  0  0  0  2  0  0  0  0  0  0
   12.7290   -3.0030   -0.6260 C   0  0  0  0  0  2  0  0  0  0  0  0
   12.3310   -2.0800   -1.7740 C   0  0  0  0  0  2  0  0  0  0  0  0
   11.3210   -1.0260   -1.3280 C   0  0  0  0  0  2  0  0  0  0  0  0
   10.0870   -1.6620   -0.6890 C   0  0  0  0  0  2  0  0  0  0  0  0
    5.0100   -7.7660    1.1150 O   0  0  0  0  0  1  0  0  0  0  0  0
    5.4680   -7.2070    0.0680 C   0  0  0  0  0  0  0  0  0  0  0  0
    5.1190   -7.4690   -1.1260 O   0  0  0  0  0  0  0  0  0  0  0  0
   11.0680    0.9960    5.8530 O   0  0  0  0  0  0  0  0  0  0  0  0
   11.1690    2.3040    5.2900 C   0  0  0  0  0  2  0  0  0  0  0  0
   12.5870    2.7520    5.0230 C   0  0  0  0  0  0  0  0  0  0  0  0
   13.6030    2.4060    5.9260 C   0  0  0  0  0  3  0  0  0  0  0  0
   14.9110    2.8190    5.7000 C   0  0  0  0  0  3  0  0  0  0  0  0
   15.1720    3.5560    4.5620 C   0  0  0  0  0  3  0  0  0  0  0  0
   14.2320    3.8870    3.6540 N   0  0  0  0  0  0  0  0  0  0  0  0
   12.9520    3.4920    3.8890 C   0  0  0  0  0  0  0  0  0  0  0  0
   12.0090    3.9100    2.8450 C   0  0  0  0  0  0  0  0  0  0  0  0
   11.4520    5.2000    2.8690 C   0  0  0  0  0  3  0  0  0  0  0  0
   10.5500    5.6110    1.8840 C   0  0  0  0  0  3  0  0  0  0  0  0
   10.2050    4.7350    0.8580 C   0  0  0  0  0  0  0  0  0  0  0  0
    9.0950    5.2360   -0.3590 Cl  0  0  0  0  0  0  0  0  0  0  0  0
   10.7560    3.4560    0.8060 C   0  0  0  0  0  3  0  0  0  0  0  0
   11.6560    3.0470    1.7940 C   0  0  0  0  0  3  0  0  0  0  0  0
  1  6  1  0  0  0  0
  2  1  2  0  0  0  0
  2  3  1  0  0  0  0
  3  4  2  0  0  0  0
  4  5  1  0  0  0  0
  4 25  1  0  0  0  0
  6  5  2  0  0  0  0
  7 12  1  0  0  0  0
  8  9  1  0  0  0  0
  8  7  2  0  0  0  0
  9 10  2  0  0  0  0
 10 15  1  0  0  0  0
 10 11  1  0  0  0  0
 11 13  1  0  0  0  0
 12 11  2  0  0  0  0
 14 13  2  0  0  0  0
 14  1  1  0  0  0  0
 15 14  1  0  0  0  0
 16 15  1  0  0  0  0
 17 16  1  0  0  0  0
 18 17  1  0  0  0  0
 19 20  1  0  0  0  0
 19 18  1  0  0  0  0
 20 21  1  0  0  0  0
 21 16  1  0  0  0  0
 23  7  1  0  0  0  0
 23 22  1  0  0  0  0
 24 23  2  0  0  0  0
 26 25  1  0  0  0  0
 27 26  1  0  0  0  0
 27 28  1  0  0  0  0
 29 28  2  0  0  0  0
 30 29  1  0  0  0  0
 31 32  1  0  0  0  0
 31 30  2  0  0  0  0
 32 27  2  0  0  0  0
 33 34  1  0  0  0  0
 33 32  1  0  0  0  0
 35 34  2  0  0  0  0
 36 35  1  0  0  0  0
 37 36  1  0  0  0  0
 38 36  2  0  0  0  0
 38 39  1  0  0  0  0
 39 33  2  0  0  0  0
M  END
>  <minimizedAffinity>
-8.59910107

$$$$
