
 OpenBabel09122222393D

 44 49  0  0  0  0  0  0  0  0999 V2000
    1.5610   -8.0890    9.0040 C   0  0  0  0  0  0  0  0  0  0  0  0
    0.7400   -7.0750    9.5000 C   0  0  0  0  0  3  0  0  0  0  0  0
    1.2430   -5.7890    9.7070 C   0  0  0  0  0  3  0  0  0  0  0  0
    2.5920   -5.5170    9.4630 C   0  0  0  0  0  0  0  0  0  0  0  0
    3.4220   -6.5440    8.9990 C   0  0  0  0  0  3  0  0  0  0  0  0
    2.9120   -7.8290    8.7830 C   0  0  0  0  0  3  0  0  0  0  0  0
    3.1020   -4.1560    9.5660 C   0  0  0  0  0  0  0  0  0  0  0  0
    3.2500   -3.5490   10.7280 N   0  0  0  0  0  0  0  0  0  0  0  0
    3.6610   -2.2730   10.4510 C   0  0  0  0  0  0  0  0  0  0  0  0
    3.9250   -1.2100   11.3280 C   0  0  0  0  0  3  0  0  0  0  0  0
    4.3190    0.0410   10.8150 C   0  0  0  0  0  0  0  0  0  0  0  0
    4.4440    0.1900    9.4230 C   0  0  0  0  0  3  0  0  0  0  0  0
    4.1910   -0.8600    8.5320 C   0  0  0  0  0  3  0  0  0  0  0  0
    3.7980   -2.0880    9.0800 C   0  0  0  0  0  0  0  0  0  0  0  0
    3.4640   -3.3150    8.5280 N   0  0  0  0  0  0  0  0  0  0  0  0
    3.4730   -3.5800    7.0930 C   0  0  0  0  0  3  0  0  0  0  0  0
    2.4230   -2.8080    6.2780 C   0  0  0  0  0  2  0  0  0  0  0  0
    2.4170   -3.2760    4.8210 C   0  0  0  0  0  2  0  0  0  0  0  0
    3.8050   -3.1640    4.1930 C   0  0  0  0  0  2  0  0  0  0  0  0
    4.8640   -3.9000    5.0100 C   0  0  0  0  0  2  0  0  0  0  0  0
    4.8700   -3.4510    6.4710 C   0  0  0  0  0  2  0  0  0  0  0  0
    4.5960    1.2070   11.7430 C   0  0  0  0  0  0  0  0  0  0  0  0
    4.2500    2.3640   11.3470 O   0  0  0  0  0  0  0  0  0  0  0  0
    5.1550    0.9390   12.8550 O   0  0  0  0  0  1  0  0  0  0  0  0
    0.9350   -9.2840    8.7810 O   0  0  0  0  0  0  0  0  0  0  0  0
    0.6420   -9.6430    7.4290 C   0  0  0  0  0  2  0  0  0  0  0  0
   -2.7170   -7.9500    6.7560 C   0  0  0  0  0  0  0  0  0  0  0  0
   -2.4510   -7.2110    5.6030 C   0  0  0  0  0  3  0  0  0  0  0  0
   -1.1730   -7.2330    5.0430 C   0  0  0  0  0  3  0  0  0  0  0  0
   -0.1370   -7.9980    5.6120 C   0  0  0  0  0  0  0  0  0  0  0  0
   -0.4130   -8.7740    6.7630 C   0  0  0  0  0  0  0  0  0  0  0  0
   -1.7110   -8.7440    7.3160 C   0  0  0  0  0  3  0  0  0  0  0  0
    1.1840   -7.9630    4.9730 C   0  0  0  0  0  0  0  0  0  0  0  0
    1.5610   -8.9510    4.0510 C   0  0  0  0  0  3  0  0  0  0  0  0
    2.8280   -8.9280    3.4600 C   0  0  0  0  0  3  0  0  0  0  0  0
    3.7260   -7.9160    3.7890 C   0  0  0  0  0  0  0  0  0  0  0  0
    5.2840   -7.8870    3.0590 Cl  0  0  0  0  0  0  0  0  0  0  0  0
    3.3740   -6.9320    4.7080 C   0  0  0  0  0  3  0  0  0  0  0  0
    2.1100   -6.9610    5.3030 C   0  0  0  0  0  3  0  0  0  0  0  0
   -4.6260  -10.3370    6.7470 C   0  0  0  0  0  1  0  0  0  0  0  0
   -4.9340   -8.9930    7.1700 N   0  0  0  0  0  0  0  0  0  0  0  0
   -4.0950   -7.9150    7.3060 C   0  0  0  0  0  0  0  0  0  0  0  0
   -4.4830   -6.9240    7.9180 O   0  0  0  0  0  0  0  0  0  0  0  0
   -5.8610   -8.8060    7.5340 H   0  0  0  0  0  0  0  0  0  0  0  0
  1  2  1  0  0  0  0
  2  3  2  0  0  0  0
  4  7  1  0  0  0  0
  4  3  1  0  0  0  0
  5  4  2  0  0  0  0
  6  5  1  0  0  0  0
  6  1  2  0  0  0  0
  7  8  2  0  0  0  0
  9  8  1  0  0  0  0
  9 10  1  0  0  0  0
 11 10  2  0  0  0  0
 11 22  1  0  0  0  0
 12 11  1  0  0  0  0
 13 14  1  0  0  0  0
 13 12  2  0  0  0  0
 14  9  2  0  0  0  0
 15 14  1  0  0  0  0
 15  7  1  0  0  0  0
 16 15  1  0  0  0  0
 17 16  1  0  0  0  0
 18 17  1  0  0  0  0
 19 18  1  0  0  0  0
 19 20  1  0  0  0  0
 20 21  1  0  0  0  0
 21 16  1  0  0  0  0
 22 24  1  0  0  0  0
 23 22  2  0  0  0  0
 25  1  1  0  0  0  0
 26 25  1  0  0  0  0
 27 42  1  0  0  0  0
 27 32  1  0  0  0  0
 28 27  2  0  0  0  0
 29 28  1  0  0  0  0
 29 30  2  0  0  0  0
 30 31  1  0  0  0  0
 31 32  2  0  0  0  0
 31 26  1  0  0  0  0
 33 39  1  0  0  0  0
 33 30  1  0  0  0  0
 34 33  2  0  0  0  0
 35 36  2  0  0  0  0
 35 34  1  0  0  0  0
 36 38  1  0  0  0  0
 37 36  1  0  0  0  0
 38 39  2  0  0  0  0
 40 41  1  0  0  0  0
 41 42  1  0  0  0  0
 41 44  1  0  0  0  0
 42 43  2  0  0  0  0
M  END
>  <minimizedAffinity>
-7.69862366

$$$$
