
 OpenBabel09122222393D

 44 49  0  0  0  0  0  0  0  0999 V2000
    2.1990  -10.0580    8.5000 C   0  0  0  0  0  0  0  0  0  0  0  0
    1.4210  -10.1340    7.3440 C   0  0  0  0  0  3  0  0  0  0  0  0
    1.7620   -9.3950    6.2080 C   0  0  0  0  0  3  0  0  0  0  0  0
    2.8620   -8.5340    6.2370 C   0  0  0  0  0  0  0  0  0  0  0  0
    3.6200   -8.4340    7.4090 C   0  0  0  0  0  3  0  0  0  0  0  0
    3.2820   -9.1820    8.5420 C   0  0  0  0  0  3  0  0  0  0  0  0
    3.2940   -7.8470    5.0260 C   0  0  0  0  0  0  0  0  0  0  0  0
    3.5130   -8.4900    3.8960 N   0  0  0  0  0  0  0  0  0  0  0  0
    3.9820   -7.5620    3.0050 C   0  0  0  0  0  0  0  0  0  0  0  0
    4.3990   -7.7330    1.6760 C   0  0  0  0  0  3  0  0  0  0  0  0
    4.8730   -6.6270    0.9430 C   0  0  0  0  0  0  0  0  0  0  0  0
    4.9110   -5.3690    1.5680 C   0  0  0  0  0  3  0  0  0  0  0  0
    4.4930   -5.1780    2.8920 C   0  0  0  0  0  3  0  0  0  0  0  0
    4.0310   -6.3020    3.5890 C   0  0  0  0  0  0  0  0  0  0  0  0
    3.5570   -6.4960    4.8770 N   0  0  0  0  0  0  0  0  0  0  0  0
    3.4330   -5.4230    5.8580 C   0  0  0  0  0  3  0  0  0  0  0  0
    4.7620   -4.8900    6.4180 C   0  0  0  0  0  2  0  0  0  0  0  0
    4.5110   -3.8860    7.5440 C   0  0  0  0  0  2  0  0  0  0  0  0
    3.6020   -2.7470    7.0850 C   0  0  0  0  0  2  0  0  0  0  0  0
    2.2910   -3.2640    6.4970 C   0  0  0  0  0  2  0  0  0  0  0  0
    2.5280   -4.2790    5.3790 C   0  0  0  0  0  2  0  0  0  0  0  0
    5.3430   -6.7900   -0.4890 C   0  0  0  0  0  0  0  0  0  0  0  0
    5.6620   -5.7370   -1.1230 O   0  0  0  0  0  0  0  0  0  0  0  0
    5.3840   -7.9760   -0.9510 O   0  0  0  0  0  1  0  0  0  0  0  0
    1.8000  -10.8780    9.5190 O   0  0  0  0  0  0  0  0  0  0  0  0
    0.5390  -10.6120   10.1360 C   0  0  0  0  0  2  0  0  0  0  0  0
    1.0050   -7.1270   11.6310 C   0  0  0  0  0  0  0  0  0  0  0  0
   -0.0850   -6.4320   11.1070 C   0  0  0  0  0  3  0  0  0  0  0  0
   -0.9710   -7.0760   10.2430 C   0  0  0  0  0  3  0  0  0  0  0  0
   -0.7970   -8.4290    9.8920 C   0  0  0  0  0  0  0  0  0  0  0  0
    0.2890   -9.1450   10.4470 C   0  0  0  0  0  0  0  0  0  0  0  0
    1.1740   -8.4800   11.3230 C   0  0  0  0  0  3  0  0  0  0  0  0
   -1.7630   -9.0370    8.9680 C   0  0  0  0  0  0  0  0  0  0  0  0
   -1.8570   -8.5970    7.6390 C   0  0  0  0  0  3  0  0  0  0  0  0
   -2.7930   -9.1630    6.7670 C   0  0  0  0  0  3  0  0  0  0  0  0
   -3.6410  -10.1700    7.2200 C   0  0  0  0  0  0  0  0  0  0  0  0
   -4.7900  -10.8660    6.1450 Cl  0  0  0  0  0  0  0  0  0  0  0  0
   -3.5680  -10.6130    8.5380 C   0  0  0  0  0  3  0  0  0  0  0  0
   -2.6370  -10.0420    9.4090 C   0  0  0  0  0  3  0  0  0  0  0  0
    3.6040   -5.7580   10.7840 C   0  0  0  0  0  1  0  0  0  0  0  0
    3.1130   -5.9110   12.1320 N   0  0  0  0  0  0  0  0  0  0  0  0
    1.9090   -6.4080   12.5630 C   0  0  0  0  0  0  0  0  0  0  0  0
    1.5650   -6.2260   13.7280 O   0  0  0  0  0  0  0  0  0  0  0  0
    3.6520   -5.5030   12.8880 H   0  0  0  0  0  0  0  0  0  0  0  0
  1  6  1  0  0  0  0
  1 25  1  0  0  0  0
  2  1  2  0  0  0  0
  3  4  2  0  0  0  0
  3  2  1  0  0  0  0
  4  5  1  0  0  0  0
  5  6  2  0  0  0  0
  7  4  1  0  0  0  0
  8  7  2  0  0  0  0
  9 14  1  0  0  0  0
  9  8  1  0  0  0  0
 10  9  2  0  0  0  0
 11 12  2  0  0  0  0
 11 10  1  0  0  0  0
 12 13  1  0  0  0  0
 13 14  2  0  0  0  0
 14 15  1  0  0  0  0
 15  7  1  0  0  0  0
 15 16  1  0  0  0  0
 16 17  1  0  0  0  0
 17 18  1  0  0  0  0
 19 18  1  0  0  0  0
 20 19  1  0  0  0  0
 21 16  1  0  0  0  0
 21 20  1  0  0  0  0
 22 11  1  0  0  0  0
 23 22  2  0  0  0  0
 24 22  1  0  0  0  0
 25 26  1  0  0  0  0
 26 31  1  0  0  0  0
 27 42  1  0  0  0  0
 28 27  2  0  0  0  0
 29 28  1  0  0  0  0
 30 29  2  0  0  0  0
 30 31  1  0  0  0  0
 31 32  2  0  0  0  0
 32 27  1  0  0  0  0
 33 39  1  0  0  0  0
 33 30  1  0  0  0  0
 34 33  2  0  0  0  0
 35 36  2  0  0  0  0
 35 34  1  0  0  0  0
 36 38  1  0  0  0  0
 37 36  1  0  0  0  0
 38 39  2  0  0  0  0
 40 41  1  0  0  0  0
 41 42  1  0  0  0  0
 41 44  1  0  0  0  0
 42 43  2  0  0  0  0
M  END
>  <minimizedAffinity>
-6.05394983

$$$$
