
 OpenBabel09122222393D

 44 49  0  0  0  0  0  0  0  0999 V2000
    1.7150   -9.8690    8.4480 C   0  0  0  0  0  0  0  0  0  0  0  0
    0.9040   -9.7510    7.3180 C   0  0  0  0  0  3  0  0  0  0  0  0
    1.3410   -9.0330    6.2020 C   0  0  0  0  0  3  0  0  0  0  0  0
    2.5780   -8.3840    6.2260 C   0  0  0  0  0  0  0  0  0  0  0  0
    3.3740   -8.4760    7.3740 C   0  0  0  0  0  3  0  0  0  0  0  0
    2.9380   -9.2030    8.4870 C   0  0  0  0  0  3  0  0  0  0  0  0
    3.0930   -7.7300    5.0300 C   0  0  0  0  0  0  0  0  0  0  0  0
    3.2730   -8.3820    3.8970 N   0  0  0  0  0  0  0  0  0  0  0  0
    3.8410   -7.4940    3.0230 C   0  0  0  0  0  0  0  0  0  0  0  0
    4.2640   -7.6910    1.7000 C   0  0  0  0  0  3  0  0  0  0  0  0
    4.8510   -6.6280    0.9860 C   0  0  0  0  0  0  0  0  0  0  0  0
    4.9920   -5.3840    1.6240 C   0  0  0  0  0  3  0  0  0  0  0  0
    4.5690   -5.1660    2.9420 C   0  0  0  0  0  3  0  0  0  0  0  0
    3.9930   -6.2480    3.6200 C   0  0  0  0  0  0  0  0  0  0  0  0
    3.4810   -6.4080    4.8980 N   0  0  0  0  0  0  0  0  0  0  0  0
    3.4370   -5.3360    5.8870 C   0  0  0  0  0  3  0  0  0  0  0  0
    4.8040   -4.8880    6.4280 C   0  0  0  0  0  2  0  0  0  0  0  0
    4.6320   -3.8770    7.5640 C   0  0  0  0  0  2  0  0  0  0  0  0
    3.7870   -2.6830    7.1260 C   0  0  0  0  0  2  0  0  0  0  0  0
    2.4380   -3.1150    6.5550 C   0  0  0  0  0  2  0  0  0  0  0  0
    2.5960   -4.1370    5.4290 C   0  0  0  0  0  2  0  0  0  0  0  0
    5.3290   -6.8220   -0.4390 C   0  0  0  0  0  0  0  0  0  0  0  0
    5.3630   -8.0110   -0.8870 O   0  0  0  0  0  1  0  0  0  0  0  0
    5.6610   -5.7760   -1.0830 O   0  0  0  0  0  0  0  0  0  0  0  0
    1.2040  -10.6510    9.4470 O   0  0  0  0  0  0  0  0  0  0  0  0
    0.4040  -10.0180   10.4480 C   0  0  0  0  0  2  0  0  0  0  0  0
   -3.1650   -9.6610    9.1310 C   0  0  0  0  0  0  0  0  0  0  0  0
   -3.2680   -8.2860    8.9210 C   0  0  0  0  0  3  0  0  0  0  0  0
   -2.1910   -7.4540    9.2270 C   0  0  0  0  0  3  0  0  0  0  0  0
   -0.9850   -7.9740    9.7380 C   0  0  0  0  0  0  0  0  0  0  0  0
   -0.8670   -9.3720    9.9210 C   0  0  0  0  0  0  0  0  0  0  0  0
   -1.9650  -10.2010    9.6030 C   0  0  0  0  0  3  0  0  0  0  0  0
    0.1010   -7.0360   10.0470 C   0  0  0  0  0  0  0  0  0  0  0  0
    0.4360   -6.7420   11.3780 C   0  0  0  0  0  3  0  0  0  0  0  0
    1.4560   -5.8320   11.6700 C   0  0  0  0  0  3  0  0  0  0  0  0
    2.1460   -5.2090   10.6330 C   0  0  0  0  0  0  0  0  0  0  0  0
    3.4030   -4.0910   10.9950 Cl  0  0  0  0  0  0  0  0  0  0  0  0
    1.8220   -5.4810    9.3070 C   0  0  0  0  0  3  0  0  0  0  0  0
    0.7970   -6.3850    9.0170 C   0  0  0  0  0  3  0  0  0  0  0  0
   -5.4550  -10.3340   11.0420 C   0  0  0  0  0  1  0  0  0  0  0  0
   -5.2630  -10.8590    9.7120 N   0  0  0  0  0  0  0  0  0  0  0  0
   -4.3280  -10.5110    8.7700 C   0  0  0  0  0  0  0  0  0  0  0  0
   -4.4750  -10.8830    7.6100 O   0  0  0  0  0  0  0  0  0  0  0  0
   -5.9630  -11.4930    9.3410 H   0  0  0  0  0  0  0  0  0  0  0  0
  1  6  1  0  0  0  0
  1 25  1  0  0  0  0
  2  1  2  0  0  0  0
  3  4  2  0  0  0  0
  3  2  1  0  0  0  0
  4  5  1  0  0  0  0
  5  6  2  0  0  0  0
  7  4  1  0  0  0  0
  8  7  2  0  0  0  0
  9 14  1  0  0  0  0
  9  8  1  0  0  0  0
 10  9  2  0  0  0  0
 11 12  2  0  0  0  0
 11 10  1  0  0  0  0
 12 13  1  0  0  0  0
 13 14  2  0  0  0  0
 14 15  1  0  0  0  0
 15  7  1  0  0  0  0
 15 16  1  0  0  0  0
 16 17  1  0  0  0  0
 17 18  1  0  0  0  0
 19 18  1  0  0  0  0
 20 19  1  0  0  0  0
 21 16  1  0  0  0  0
 21 20  1  0  0  0  0
 22 11  1  0  0  0  0
 23 22  1  0  0  0  0
 24 22  2  0  0  0  0
 25 26  1  0  0  0  0
 27 32  1  0  0  0  0
 28 27  2  0  0  0  0
 28 29  1  0  0  0  0
 29 30  2  0  0  0  0
 30 31  1  0  0  0  0
 30 33  1  0  0  0  0
 31 26  1  0  0  0  0
 32 31  2  0  0  0  0
 33 34  1  0  0  0  0
 34 35  2  0  0  0  0
 36 37  1  0  0  0  0
 36 35  1  0  0  0  0
 38 36  2  0  0  0  0
 39 38  1  0  0  0  0
 39 33  2  0  0  0  0
 41 40  1  0  0  0  0
 42 27  1  0  0  0  0
 42 41  1  0  0  0  0
 43 42  2  0  0  0  0
 44 41  1  0  0  0  0
M  END
>  <minimizedAffinity>
-6.8724885

$$$$
