
 OpenBabel09122222393D

 44 49  0  0  0  0  0  0  0  0999 V2000
    2.8980   -8.9070    8.8290 C   0  0  0  0  0  0  0  0  0  0  0  0
    1.8880   -8.0930    9.3460 C   0  0  0  0  0  3  0  0  0  0  0  0
    2.1070   -6.7270    9.5410 C   0  0  0  0  0  3  0  0  0  0  0  0
    3.3590   -6.1720    9.2660 C   0  0  0  0  0  0  0  0  0  0  0  0
    4.3800   -6.9970    8.7800 C   0  0  0  0  0  3  0  0  0  0  0  0
    4.1550   -8.3630    8.5760 C   0  0  0  0  0  3  0  0  0  0  0  0
    3.5650   -4.7320    9.3570 C   0  0  0  0  0  0  0  0  0  0  0  0
    3.7190   -4.1180   10.5150 N   0  0  0  0  0  0  0  0  0  0  0  0
    3.8010   -2.7800   10.2380 C   0  0  0  0  0  0  0  0  0  0  0  0
    3.9320   -1.6930   11.1160 C   0  0  0  0  0  3  0  0  0  0  0  0
    3.9730   -0.3810   10.6060 C   0  0  0  0  0  0  0  0  0  0  0  0
    3.8870   -0.1940    9.2160 C   0  0  0  0  0  3  0  0  0  0  0  0
    3.7630   -1.2670    8.3230 C   0  0  0  0  0  3  0  0  0  0  0  0
    3.7230   -2.5560    8.8680 C   0  0  0  0  0  0  0  0  0  0  0  0
    3.6010   -3.8220    8.3150 N   0  0  0  0  0  0  0  0  0  0  0  0
    3.4890   -4.0640    6.8810 C   0  0  0  0  0  3  0  0  0  0  0  0
    4.7830   -4.5260    6.1910 C   0  0  0  0  0  2  0  0  0  0  0  0
    4.5930   -4.5980    4.6750 C   0  0  0  0  0  2  0  0  0  0  0  0
    3.4120   -5.4920    4.3020 C   0  0  0  0  0  2  0  0  0  0  0  0
    2.1260   -5.0640    5.0050 C   0  0  0  0  0  2  0  0  0  0  0  0
    2.3070   -4.9750    6.5200 C   0  0  0  0  0  2  0  0  0  0  0  0
    4.0990    0.8090   11.5370 C   0  0  0  0  0  0  0  0  0  0  0  0
    3.9400    0.5980   12.7790 O   0  0  0  0  0  1  0  0  0  0  0  0
    4.3570    1.9350   11.0020 O   0  0  0  0  0  0  0  0  0  0  0  0
    2.5390  -10.2100    8.6210 O   0  0  0  0  0  0  0  0  0  0  0  0
    1.5140  -10.4750    7.6610 C   0  0  0  0  0  2  0  0  0  0  0  0
    3.3160   -9.7550    4.3690 C   0  0  0  0  0  0  0  0  0  0  0  0
    2.4160   -8.9130    3.7170 C   0  0  0  0  0  3  0  0  0  0  0  0
    1.2020   -8.5890    4.3240 C   0  0  0  0  0  3  0  0  0  0  0  0
    0.8650   -9.0850    5.5970 C   0  0  0  0  0  0  0  0  0  0  0  0
    1.7900   -9.9130    6.2760 C   0  0  0  0  0  0  0  0  0  0  0  0
    3.0150  -10.2290    5.6500 C   0  0  0  0  0  3  0  0  0  0  0  0
   -0.4350   -8.7090    6.1680 C   0  0  0  0  0  0  0  0  0  0  0  0
   -1.5720   -9.5000    5.9410 C   0  0  0  0  0  3  0  0  0  0  0  0
   -2.8130   -9.1280    6.4670 C   0  0  0  0  0  3  0  0  0  0  0  0
   -2.9250   -7.9640    7.2220 C   0  0  0  0  0  0  0  0  0  0  0  0
   -4.4520   -7.5100    7.8710 Cl  0  0  0  0  0  0  0  0  0  0  0  0
   -1.8100   -7.1620    7.4510 C   0  0  0  0  0  3  0  0  0  0  0  0
   -0.5720   -7.5320    6.9180 C   0  0  0  0  0  3  0  0  0  0  0  0
    3.5480  -10.8920    1.5410 C   0  0  0  0  0  1  0  0  0  0  0  0
    4.6310  -10.6650    2.4680 N   0  0  0  0  0  0  0  0  0  0  0  0
    4.6050  -10.0560    3.6970 C   0  0  0  0  0  0  0  0  0  0  0  0
    5.6620   -9.7280    4.2280 O   0  0  0  0  0  0  0  0  0  0  0  0
    5.5750  -10.8670    2.1600 H   0  0  0  0  0  0  0  0  0  0  0  0
  1  2  1  0  0  0  0
  2  3  2  0  0  0  0
  4  7  1  0  0  0  0
  4  3  1  0  0  0  0
  5  4  2  0  0  0  0
  6  5  1  0  0  0  0
  6  1  2  0  0  0  0
  7  8  2  0  0  0  0
  9  8  1  0  0  0  0
  9 10  1  0  0  0  0
 11 10  2  0  0  0  0
 11 22  1  0  0  0  0
 12 11  1  0  0  0  0
 13 14  1  0  0  0  0
 13 12  2  0  0  0  0
 14  9  2  0  0  0  0
 15 14  1  0  0  0  0
 15  7  1  0  0  0  0
 16 15  1  0  0  0  0
 17 16  1  0  0  0  0
 18 17  1  0  0  0  0
 19 18  1  0  0  0  0
 19 20  1  0  0  0  0
 20 21  1  0  0  0  0
 21 16  1  0  0  0  0
 22 23  1  0  0  0  0
 24 22  2  0  0  0  0
 25  1  1  0  0  0  0
 26 25  1  0  0  0  0
 27 32  1  0  0  0  0
 28 29  1  0  0  0  0
 28 27  2  0  0  0  0
 29 30  2  0  0  0  0
 30 33  1  0  0  0  0
 30 31  1  0  0  0  0
 31 26  1  0  0  0  0
 32 31  2  0  0  0  0
 33 39  1  0  0  0  0
 34 33  2  0  0  0  0
 34 35  1  0  0  0  0
 35 36  2  0  0  0  0
 36 38  1  0  0  0  0
 36 37  1  0  0  0  0
 39 38  2  0  0  0  0
 40 41  1  0  0  0  0
 41 42  1  0  0  0  0
 42 43  2  0  0  0  0
 42 27  1  0  0  0  0
 44 41  1  0  0  0  0
M  END
>  <minimizedAffinity>
-6.57682753

$$$$
