
 OpenBabel09122222393D

 44 49  0  0  0  0  0  0  0  0999 V2000
    1.9560   -7.2680    8.7510 C   0  0  0  0  0  0  0  0  0  0  0  0
    0.8870   -6.3720    8.8010 C   0  0  0  0  0  3  0  0  0  0  0  0
   -0.4300   -6.8360    8.8150 C   0  0  0  0  0  3  0  0  0  0  0  0
   -0.6910   -8.2070    8.7290 C   0  0  0  0  0  0  0  0  0  0  0  0
    0.3820   -9.1010    8.6440 C   0  0  0  0  0  3  0  0  0  0  0  0
    1.7010   -8.6340    8.6400 C   0  0  0  0  0  3  0  0  0  0  0  0
   -2.0530   -8.7090    8.8570 C   0  0  0  0  0  0  0  0  0  0  0  0
   -2.6880   -8.7240   10.0130 N   0  0  0  0  0  0  0  0  0  0  0  0
   -3.8940   -9.3310    9.7870 C   0  0  0  0  0  0  0  0  0  0  0  0
   -4.9270   -9.6290   10.6890 C   0  0  0  0  0  3  0  0  0  0  0  0
   -6.0860  -10.2880   10.2340 C   0  0  0  0  0  0  0  0  0  0  0  0
   -6.1800  -10.6270    8.8740 C   0  0  0  0  0  3  0  0  0  0  0  0
   -5.1630  -10.3320    7.9570 C   0  0  0  0  0  3  0  0  0  0  0  0
   -4.0250   -9.6790    8.4470 C   0  0  0  0  0  0  0  0  0  0  0  0
   -2.8460   -9.2460    7.8580 N   0  0  0  0  0  0  0  0  0  0  0  0
   -2.5510   -9.4060    6.4390 C   0  0  0  0  0  3  0  0  0  0  0  0
   -2.9080  -10.7790    5.8460 C   0  0  0  0  0  2  0  0  0  0  0  0
   -2.4150  -10.8910    4.4030 C   0  0  0  0  0  2  0  0  0  0  0  0
   -2.9550   -9.7530    3.5380 C   0  0  0  0  0  2  0  0  0  0  0  0
   -2.6350   -8.3830    4.1320 C   0  0  0  0  0  2  0  0  0  0  0  0
   -3.1100   -8.2640    5.5800 C   0  0  0  0  0  2  0  0  0  0  0  0
   -7.2080  -10.6330   11.1940 C   0  0  0  0  0  0  0  0  0  0  0  0
   -8.3900  -10.6460   10.7300 O   0  0  0  0  0  0  0  0  0  0  0  0
   -6.8790  -10.8860   12.3970 O   0  0  0  0  0  1  0  0  0  0  0  0
    3.1950   -6.6940    8.8110 O   0  0  0  0  0  0  0  0  0  0  0  0
    3.9900   -6.6940    7.6220 C   0  0  0  0  0  2  0  0  0  0  0  0
    4.0460   -2.9850    6.7040 C   0  0  0  0  0  0  0  0  0  0  0  0
    3.6860   -3.0080    5.3570 C   0  0  0  0  0  3  0  0  0  0  0  0
    3.4440   -4.2270    4.7220 C   0  0  0  0  0  3  0  0  0  0  0  0
    3.5450   -5.4470    5.4180 C   0  0  0  0  0  0  0  0  0  0  0  0
    3.8780   -5.4250    6.7930 C   0  0  0  0  0  0  0  0  0  0  0  0
    4.1160   -4.1840    7.4210 C   0  0  0  0  0  3  0  0  0  0  0  0
    3.2870   -6.6900    4.6810 C   0  0  0  0  0  0  0  0  0  0  0  0
    4.0330   -7.0120    3.5360 C   0  0  0  0  0  3  0  0  0  0  0  0
    3.7710   -8.1860    2.8230 C   0  0  0  0  0  3  0  0  0  0  0  0
    2.7620   -9.0450    3.2500 C   0  0  0  0  0  0  0  0  0  0  0  0
    2.4440  -10.4900    2.3730 Cl  0  0  0  0  0  0  0  0  0  0  0  0
    2.0060   -8.7390    4.3780 C   0  0  0  0  0  3  0  0  0  0  0  0
    2.2650   -7.5620    5.0850 C   0  0  0  0  0  3  0  0  0  0  0  0
    1.8610   -1.3560    8.0900 C   0  0  0  0  0  1  0  0  0  0  0  0
    3.2220   -0.9420    7.8530 N   0  0  0  0  0  0  0  0  0  0  0  0
    4.2710   -1.6650    7.3450 C   0  0  0  0  0  0  0  0  0  0  0  0
    5.4130   -1.2270    7.4520 O   0  0  0  0  0  0  0  0  0  0  0  0
    3.5150   -0.0360    8.2010 H   0  0  0  0  0  0  0  0  0  0  0  0
  1  2  1  0  0  0  0
  1 25  1  0  0  0  0
  2  3  2  0  0  0  0
  4  3  1  0  0  0  0
  4  7  1  0  0  0  0
  5  4  2  0  0  0  0
  6  5  1  0  0  0  0
  6  1  2  0  0  0  0
  7  8  2  0  0  0  0
  9  8  1  0  0  0  0
  9 10  1  0  0  0  0
 11 10  2  0  0  0  0
 11 22  1  0  0  0  0
 12 11  1  0  0  0  0
 13 14  1  0  0  0  0
 13 12  2  0  0  0  0
 14  9  2  0  0  0  0
 15 14  1  0  0  0  0
 15  7  1  0  0  0  0
 16 15  1  0  0  0  0
 17 16  1  0  0  0  0
 18 17  1  0  0  0  0
 19 20  1  0  0  0  0
 19 18  1  0  0  0  0
 20 21  1  0  0  0  0
 21 16  1  0  0  0  0
 22 24  1  0  0  0  0
 23 22  2  0  0  0  0
 26 25  1  0  0  0  0
 27 42  1  0  0  0  0
 27 32  1  0  0  0  0
 28 27  2  0  0  0  0
 29 28  1  0  0  0  0
 29 30  2  0  0  0  0
 30 31  1  0  0  0  0
 31 32  2  0  0  0  0
 31 26  1  0  0  0  0
 33 39  1  0  0  0  0
 33 30  1  0  0  0  0
 34 33  2  0  0  0  0
 35 36  2  0  0  0  0
 35 34  1  0  0  0  0
 36 38  1  0  0  0  0
 37 36  1  0  0  0  0
 38 39  2  0  0  0  0
 41 40  1  0  0  0  0
 41 44  1  0  0  0  0
 42 43  2  0  0  0  0
 42 41  1  0  0  0  0
M  END
>  <minimizedAffinity>
-6.15197611

$$$$
