
 OpenBabel09122222393D

 44 49  0  0  0  0  0  0  0  0999 V2000
    1.9080   -8.7400    5.3210 C   0  0  0  0  0  0  0  0  0  0  0  0
    1.3110   -7.7370    6.0880 C   0  0  0  0  0  3  0  0  0  0  0  0
    0.1410   -7.9930    6.8060 C   0  0  0  0  0  3  0  0  0  0  0  0
   -0.4720   -9.2460    6.7240 C   0  0  0  0  0  0  0  0  0  0  0  0
    0.1090  -10.2380    5.9270 C   0  0  0  0  0  3  0  0  0  0  0  0
    1.2870   -9.9830    5.2160 C   0  0  0  0  0  3  0  0  0  0  0  0
   -1.6270   -9.5590    7.5550 C   0  0  0  0  0  0  0  0  0  0  0  0
   -2.8120   -9.8220    7.0390 N   0  0  0  0  0  0  0  0  0  0  0  0
   -3.6700   -9.9830    8.0940 C   0  0  0  0  0  0  0  0  0  0  0  0
   -5.0490  -10.2410    8.0910 C   0  0  0  0  0  3  0  0  0  0  0  0
   -5.7440  -10.3480    9.3120 C   0  0  0  0  0  0  0  0  0  0  0  0
   -5.0280  -10.1970   10.5110 C   0  0  0  0  0  3  0  0  0  0  0  0
   -3.6500   -9.9460   10.5340 C   0  0  0  0  0  3  0  0  0  0  0  0
   -2.9940   -9.8440    9.3010 C   0  0  0  0  0  0  0  0  0  0  0  0
   -1.6780   -9.6010    8.9380 N   0  0  0  0  0  0  0  0  0  0  0  0
   -0.6040   -9.3920    9.9030 C   0  0  0  0  0  3  0  0  0  0  0  0
    0.6790  -10.1970    9.6410 C   0  0  0  0  0  2  0  0  0  0  0  0
    1.6720  -10.0220   10.7910 C   0  0  0  0  0  2  0  0  0  0  0  0
    1.9810   -8.5480   11.0440 C   0  0  0  0  0  2  0  0  0  0  0  0
    0.7120   -7.7290   11.2740 C   0  0  0  0  0  2  0  0  0  0  0  0
   -0.2950   -7.9070   10.1380 C   0  0  0  0  0  2  0  0  0  0  0  0
   -7.2370  -10.6110    9.3330 C   0  0  0  0  0  0  0  0  0  0  0  0
   -7.7970  -10.8920    8.2280 O   0  0  0  0  0  0  0  0  0  0  0  0
   -7.8200  -10.5310   10.4620 O   0  0  0  0  0  1  0  0  0  0  0  0
    3.0840   -8.3860    4.7210 O   0  0  0  0  0  0  0  0  0  0  0  0
    3.4440   -7.0020    4.7230 C   0  0  0  0  0  2  0  0  0  0  0  0
    4.6550   -6.9880    1.0980 C   0  0  0  0  0  0  0  0  0  0  0  0
    4.8860   -5.6320    0.8690 C   0  0  0  0  0  3  0  0  0  0  0  0
    4.6290   -4.7020    1.8770 C   0  0  0  0  0  3  0  0  0  0  0  0
    4.1480   -5.1040    3.1380 C   0  0  0  0  0  0  0  0  0  0  0  0
    3.9430   -6.4820    3.3840 C   0  0  0  0  0  0  0  0  0  0  0  0
    4.2110   -7.4100    2.3560 C   0  0  0  0  0  3  0  0  0  0  0  0
    3.8900   -4.0670    4.1450 C   0  0  0  0  0  0  0  0  0  0  0  0
    4.8540   -3.7580    5.1170 C   0  0  0  0  0  3  0  0  0  0  0  0
    4.5980   -2.7860    6.0890 C   0  0  0  0  0  3  0  0  0  0  0  0
    3.3760   -2.1180    6.0950 C   0  0  0  0  0  0  0  0  0  0  0  0
    3.0640   -0.9200    7.2900 Cl  0  0  0  0  0  0  0  0  0  0  0  0
    2.4040   -2.4180    5.1450 C   0  0  0  0  0  3  0  0  0  0  0  0
    2.6590   -3.3940    4.1790 C   0  0  0  0  0  3  0  0  0  0  0  0
    3.4620   -9.7960    0.8910 C   0  0  0  0  0  1  0  0  0  0  0  0
    4.4740   -9.2260    0.0350 N   0  0  0  0  0  0  0  0  0  0  0  0
    4.9630   -7.9440    0.0060 C   0  0  0  0  0  0  0  0  0  0  0  0
    5.6350   -7.5780   -0.9540 O   0  0  0  0  0  0  0  0  0  0  0  0
    4.8160   -9.7840   -0.7400 H   0  0  0  0  0  0  0  0  0  0  0  0
  1  2  1  0  0  0  0
  2  3  2  0  0  0  0
  4  3  1  0  0  0  0
  4  7  1  0  0  0  0
  5  4  2  0  0  0  0
  6  1  2  0  0  0  0
  6  5  1  0  0  0  0
  7 15  1  0  0  0  0
  8  7  2  0  0  0  0
  8  9  1  0  0  0  0
  9 14  1  0  0  0  0
 10  9  2  0  0  0  0
 10 11  1  0  0  0  0
 11 22  1  0  0  0  0
 11 12  2  0  0  0  0
 12 13  1  0  0  0  0
 14 13  2  0  0  0  0
 15 14  1  0  0  0  0
 15 16  1  0  0  0  0
 16 21  1  0  0  0  0
 17 16  1  0  0  0  0
 17 18  1  0  0  0  0
 18 19  1  0  0  0  0
 19 20  1  0  0  0  0
 21 20  1  0  0  0  0
 22 24  1  0  0  0  0
 23 22  2  0  0  0  0
 25 26  1  0  0  0  0
 25  1  1  0  0  0  0
 27 32  1  0  0  0  0
 28 27  2  0  0  0  0
 28 29  1  0  0  0  0
 29 30  2  0  0  0  0
 30 31  1  0  0  0  0
 30 33  1  0  0  0  0
 31 26  1  0  0  0  0
 32 31  2  0  0  0  0
 33 39  2  0  0  0  0
 33 34  1  0  0  0  0
 34 35  2  0  0  0  0
 35 36  1  0  0  0  0
 36 37  1  0  0  0  0
 38 36  2  0  0  0  0
 39 38  1  0  0  0  0
 41 40  1  0  0  0  0
 42 41  1  0  0  0  0
 42 27  1  0  0  0  0
 43 42  2  0  0  0  0
 44 41  1  0  0  0  0
M  END
>  <minimizedAffinity>
-6.42951012

$$$$
