
 OpenBabel09122222393D

 25 28  0  0  0  0  0  0  0  0999 V2000
    0.9960   -4.4220    4.8300 C   0  0  0  0  0  1  0  0  0  0  0  0
    1.2550   -5.8440    4.7240 N   0  0  0  0  0  0  0  0  0  0  0  0
    2.4880   -6.4320    4.5080 C   0  0  0  0  0  0  0  0  0  0  0  0
    2.2860   -7.8120    4.4570 C   0  0  0  0  0  0  0  0  0  0  0  0
    0.8780   -8.0380    4.6610 C   0  0  0  0  0  0  0  0  0  0  0  0
    0.0680   -9.1930    4.7170 C   0  0  0  0  0  3  0  0  0  0  0  0
   -1.3100   -9.0730    4.9530 C   0  0  0  0  0  3  0  0  0  0  0  0
   -1.9140   -7.8250    5.1380 C   0  0  0  0  0  0  0  0  0  0  0  0
   -1.1120   -6.6710    5.0790 C   0  0  0  0  0  3  0  0  0  0  0  0
    0.2690   -6.7990    4.8380 C   0  0  0  0  0  0  0  0  0  0  0  0
    3.7170   -5.6510    4.3830 C   0  0  0  0  0  0  0  0  0  0  0  0
    4.3810   -5.5640    3.1550 C   0  0  0  0  0  3  0  0  0  0  0  0
    5.5450   -4.8030    3.0370 C   0  0  0  0  0  3  0  0  0  0  0  0
    6.0480   -4.1200    4.1430 C   0  0  0  0  0  3  0  0  0  0  0  0
    5.3870   -4.1950    5.3690 C   0  0  0  0  0  3  0  0  0  0  0  0
    4.2230   -4.9560    5.4890 C   0  0  0  0  0  3  0  0  0  0  0  0
    3.2960   -8.9200    4.2320 C   0  0  0  0  0  3  0  0  0  0  0  0
    3.9500   -8.8410    2.8440 C   0  0  0  0  0  2  0  0  0  0  0  0
    4.8930  -10.0200    2.6030 C   0  0  0  0  0  2  0  0  0  0  0  0
    5.9350  -10.1470    3.7110 C   0  0  0  0  0  2  0  0  0  0  0  0
    5.2870  -10.2220    5.0910 C   0  0  0  0  0  2  0  0  0  0  0  0
    4.3570   -9.0350    5.3380 C   0  0  0  0  0  2  0  0  0  0  0  0
   -3.4070   -7.7120    5.3950 C   0  0  0  0  0  0  0  0  0  0  0  0
   -3.8930   -6.5410    5.4930 O   0  0  0  0  0  1  0  0  0  0  0  0
   -4.0620   -8.7980    5.4920 O   0  0  0  0  0  0  0  0  0  0  0  0
  2  1  1  0  0  0  0
  2 10  1  0  0  0  0
  3  2  1  0  0  0  0
  4  3  2  0  0  0  0
  4  5  1  0  0  0  0
  5  6  2  0  0  0  0
  5 10  1  0  0  0  0
  6  7  1  0  0  0  0
  7  8  2  0  0  0  0
  8 23  1  0  0  0  0
  9  8  1  0  0  0  0
 10  9  2  0  0  0  0
 11  3  1  0  0  0  0
 11 16  1  0  0  0  0
 12 11  2  0  0  0  0
 13 12  1  0  0  0  0
 13 14  2  0  0  0  0
 14 15  1  0  0  0  0
 15 16  2  0  0  0  0
 17  4  1  0  0  0  0
 17 22  1  0  0  0  0
 18 17  1  0  0  0  0
 19 18  1  0  0  0  0
 19 20  1  0  0  0  0
 20 21  1  0  0  0  0
 21 22  1  0  0  0  0
 23 25  2  0  0  0  0
 23 24  1  0  0  0  0
M  END
>  <minimizedAffinity>
-3.73888564

$$$$
