
 OpenBabel09122222393D

 25 28  0  0  0  0  0  0  0  0999 V2000
    4.8780   -3.3630    4.6870 C   0  0  0  0  0  1  0  0  0  0  0  0
    5.2800   -4.3610    3.7160 N   0  0  0  0  0  0  0  0  0  0  0  0
    4.6270   -5.5510    3.4550 C   0  0  0  0  0  0  0  0  0  0  0  0
    5.3550   -6.2170    2.4680 C   0  0  0  0  0  0  0  0  0  0  0  0
    6.4740   -5.3750    2.1320 C   0  0  0  0  0  0  0  0  0  0  0  0
    7.5510   -5.4880    1.2260 C   0  0  0  0  0  3  0  0  0  0  0  0
    8.4950   -4.4550    1.1250 C   0  0  0  0  0  3  0  0  0  0  0  0
    8.4010   -3.2990    1.9070 C   0  0  0  0  0  0  0  0  0  0  0  0
    7.3320   -3.1830    2.8140 C   0  0  0  0  0  3  0  0  0  0  0  0
    6.3910   -4.2240    2.9140 C   0  0  0  0  0  0  0  0  0  0  0  0
    3.3960   -5.9360    4.1430 C   0  0  0  0  0  0  0  0  0  0  0  0
    3.2550   -7.2170    4.6850 C   0  0  0  0  0  3  0  0  0  0  0  0
    2.0840   -7.5730    5.3560 C   0  0  0  0  0  3  0  0  0  0  0  0
    1.0490   -6.6490    5.4930 C   0  0  0  0  0  3  0  0  0  0  0  0
    1.1850   -5.3660    4.9620 C   0  0  0  0  0  3  0  0  0  0  0  0
    2.3560   -5.0090    4.2910 C   0  0  0  0  0  3  0  0  0  0  0  0
    5.0890   -7.5630    1.8260 C   0  0  0  0  0  3  0  0  0  0  0  0
    5.2390   -8.7260    2.8200 C   0  0  0  0  0  2  0  0  0  0  0  0
    5.0590  -10.0770    2.1310 C   0  0  0  0  0  2  0  0  0  0  0  0
    3.7380  -10.1540    1.3700 C   0  0  0  0  0  2  0  0  0  0  0  0
    3.5860   -8.9990    0.3840 C   0  0  0  0  0  2  0  0  0  0  0  0
    3.7500   -7.6470    1.0760 C   0  0  0  0  0  2  0  0  0  0  0  0
    9.4300   -2.1890    1.7840 C   0  0  0  0  0  0  0  0  0  0  0  0
    9.3000   -1.1880    2.5560 O   0  0  0  0  0  1  0  0  0  0  0  0
   10.3480   -2.3430    0.9160 O   0  0  0  0  0  0  0  0  0  0  0  0
  2  1  1  0  0  0  0
  3  2  1  0  0  0  0
  3 11  1  0  0  0  0
  4  3  2  0  0  0  0
  5  4  1  0  0  0  0
  5 10  1  0  0  0  0
  6  5  2  0  0  0  0
  7  6  1  0  0  0  0
  7  8  2  0  0  0  0
  8  9  1  0  0  0  0
  9 10  2  0  0  0  0
 10  2  1  0  0  0  0
 11 16  2  0  0  0  0
 11 12  1  0  0  0  0
 12 13  2  0  0  0  0
 13 14  1  0  0  0  0
 15 14  2  0  0  0  0
 16 15  1  0  0  0  0
 17  4  1  0  0  0  0
 17 18  1  0  0  0  0
 19 18  1  0  0  0  0
 20 19  1  0  0  0  0
 21 22  1  0  0  0  0
 21 20  1  0  0  0  0
 22 17  1  0  0  0  0
 23  8  1  0  0  0  0
 23 24  1  0  0  0  0
 25 23  2  0  0  0  0
M  END
>  <minimizedAffinity>
-4.84485292

$$$$
