
 OpenBabel09122222393D

 25 28  0  0  0  0  0  0  0  0999 V2000
    7.0740   -6.3280    0.3710 C   0  0  0  0  0  1  0  0  0  0  0  0
    6.4670   -5.8550    1.5990 N   0  0  0  0  0  0  0  0  0  0  0  0
    5.3630   -6.4040    2.2250 C   0  0  0  0  0  0  0  0  0  0  0  0
    5.1050   -5.6360    3.3610 C   0  0  0  0  0  0  0  0  0  0  0  0
    6.1060   -4.6020    3.4050 C   0  0  0  0  0  0  0  0  0  0  0  0
    6.3770   -3.5340    4.2880 C   0  0  0  0  0  3  0  0  0  0  0  0
    7.4690   -2.6870    4.0520 C   0  0  0  0  0  3  0  0  0  0  0  0
    8.3120   -2.8700    2.9500 C   0  0  0  0  0  0  0  0  0  0  0  0
    8.0440   -3.9300    2.0650 C   0  0  0  0  0  3  0  0  0  0  0  0
    6.9440   -4.7730    2.3050 C   0  0  0  0  0  0  0  0  0  0  0  0
    4.6760   -7.5850    1.7050 C   0  0  0  0  0  0  0  0  0  0  0  0
    4.9120   -8.8460    2.2620 C   0  0  0  0  0  3  0  0  0  0  0  0
    4.2400   -9.9680    1.7740 C   0  0  0  0  0  3  0  0  0  0  0  0
    3.3240   -9.8350    0.7300 C   0  0  0  0  0  3  0  0  0  0  0  0
    3.0780   -8.5780    0.1750 C   0  0  0  0  0  3  0  0  0  0  0  0
    3.7490   -7.4560    0.6630 C   0  0  0  0  0  3  0  0  0  0  0  0
    4.0060   -5.7930    4.3930 C   0  0  0  0  0  3  0  0  0  0  0  0
    2.9880   -4.6440    4.3430 C   0  0  0  0  0  2  0  0  0  0  0  0
    1.9450   -4.7720    5.4520 C   0  0  0  0  0  2  0  0  0  0  0  0
    1.2580   -6.1360    5.4290 C   0  0  0  0  0  2  0  0  0  0  0  0
    2.2690   -7.2780    5.4770 C   0  0  0  0  0  2  0  0  0  0  0  0
    3.3020   -7.1580    4.3570 C   0  0  0  0  0  2  0  0  0  0  0  0
    9.4920   -1.9450    2.7100 C   0  0  0  0  0  0  0  0  0  0  0  0
    9.7230   -1.0570    3.5890 O   0  0  0  0  0  1  0  0  0  0  0  0
   10.1640   -2.1280    1.6450 O   0  0  0  0  0  0  0  0  0  0  0  0
  1  2  1  0  0  0  0
  2  3  1  0  0  0  0
  2 10  1  0  0  0  0
  3  4  2  0  0  0  0
  4  5  1  0  0  0  0
  4 17  1  0  0  0  0
  5  6  1  0  0  0  0
  7  6  2  0  0  0  0
  8  7  1  0  0  0  0
  9 10  1  0  0  0  0
  9  8  2  0  0  0  0
 10  5  2  0  0  0  0
 11  3  1  0  0  0  0
 11 12  1  0  0  0  0
 13 12  2  0  0  0  0
 14 13  1  0  0  0  0
 15 16  1  0  0  0  0
 15 14  2  0  0  0  0
 16 11  2  0  0  0  0
 18 17  1  0  0  0  0
 18 19  1  0  0  0  0
 20 19  1  0  0  0  0
 20 21  1  0  0  0  0
 22 17  1  0  0  0  0
 22 21  1  0  0  0  0
 23  8  1  0  0  0  0
 23 24  1  0  0  0  0
 25 23  2  0  0  0  0
M  END
>  <minimizedAffinity>
-4.07585955

$$$$
