
 OpenBabel09122222393D

 25 28  0  0  0  0  0  0  0  0999 V2000
    5.5970   -3.2200    3.8270 C   0  0  0  0  0  1  0  0  0  0  0  0
    5.7920   -4.3990    3.0080 N   0  0  0  0  0  0  0  0  0  0  0  0
    5.0060   -5.5360    3.0190 C   0  0  0  0  0  0  0  0  0  0  0  0
    5.5530   -6.4290    2.0950 C   0  0  0  0  0  0  0  0  0  0  0  0
    6.7000   -5.7800    1.5150 C   0  0  0  0  0  0  0  0  0  0  0  0
    7.6520   -6.1560    0.5420 C   0  0  0  0  0  3  0  0  0  0  0  0
    8.6710   -5.2650    0.1760 C   0  0  0  0  0  3  0  0  0  0  0  0
    8.7740   -3.9940    0.7530 C   0  0  0  0  0  0  0  0  0  0  0  0
    7.8300   -3.6160    1.7250 C   0  0  0  0  0  3  0  0  0  0  0  0
    6.8140   -4.5180    2.0920 C   0  0  0  0  0  0  0  0  0  0  0  0
    3.8290   -5.6660    3.8770 C   0  0  0  0  0  0  0  0  0  0  0  0
    2.9050   -4.6220    3.9780 C   0  0  0  0  0  3  0  0  0  0  0  0
    1.7750   -4.7580    4.7860 C   0  0  0  0  0  3  0  0  0  0  0  0
    1.5590   -5.9410    5.4920 C   0  0  0  0  0  3  0  0  0  0  0  0
    2.4730   -6.9910    5.3900 C   0  0  0  0  0  3  0  0  0  0  0  0
    3.6040   -6.8550    4.5830 C   0  0  0  0  0  3  0  0  0  0  0  0
    5.0910   -7.8230    1.7220 C   0  0  0  0  0  3  0  0  0  0  0  0
    5.2270   -8.8150    2.8870 C   0  0  0  0  0  2  0  0  0  0  0  0
    4.8460  -10.2320    2.4610 C   0  0  0  0  0  2  0  0  0  0  0  0
    3.4530  -10.2820    1.8390 C   0  0  0  0  0  2  0  0  0  0  0  0
    3.3150   -9.2940    0.6830 C   0  0  0  0  0  2  0  0  0  0  0  0
    3.6810   -7.8750    1.1130 C   0  0  0  0  0  2  0  0  0  0  0  0
    9.8820   -3.0400    0.3440 C   0  0  0  0  0  0  0  0  0  0  0  0
   10.2940   -3.1070   -0.8570 O   0  0  0  0  0  0  0  0  0  0  0  0
   10.3170   -2.2400    1.2330 O   0  0  0  0  0  1  0  0  0  0  0  0
  2  3  1  0  0  0  0
  2  1  1  0  0  0  0
  3 11  1  0  0  0  0
  4  3  2  0  0  0  0
  5 10  1  0  0  0  0
  5  4  1  0  0  0  0
  6  5  2  0  0  0  0
  7  6  1  0  0  0  0
  7  8  2  0  0  0  0
  8  9  1  0  0  0  0
  9 10  2  0  0  0  0
 10  2  1  0  0  0  0
 11 12  2  0  0  0  0
 11 16  1  0  0  0  0
 12 13  1  0  0  0  0
 13 14  2  0  0  0  0
 15 14  1  0  0  0  0
 16 15  2  0  0  0  0
 17  4  1  0  0  0  0
 17 18  1  0  0  0  0
 19 18  1  0  0  0  0
 20 19  1  0  0  0  0
 21 22  1  0  0  0  0
 21 20  1  0  0  0  0
 22 17  1  0  0  0  0
 23  8  1  0  0  0  0
 23 25  1  0  0  0  0
 24 23  2  0  0  0  0
M  END
>  <minimizedAffinity>
-5.57781696

$$$$
