
 OpenBabel09122222393D

 39 44  0  0  0  0  0  0  0  0999 V2000
    6.2510   -6.5040    0.5240 C   0  0  0  0  0  0  0  0  0  0  0  0
    7.4480   -6.3010    1.2180 C   0  0  0  0  0  3  0  0  0  0  0  0
    8.4510   -5.4950    0.6700 C   0  0  0  0  0  3  0  0  0  0  0  0
    8.2910   -4.9170   -0.5910 C   0  0  0  0  0  0  0  0  0  0  0  0
    7.0860   -5.0870   -1.2690 C   0  0  0  0  0  3  0  0  0  0  0  0
    6.0800   -5.8920   -0.7230 C   0  0  0  0  0  3  0  0  0  0  0  0
    2.1710  -10.6400    1.9770 C   0  0  0  0  0  0  0  0  0  0  0  0
    2.0370   -9.8860    3.1530 C   0  0  0  0  0  3  0  0  0  0  0  0
    2.7710   -8.7140    3.3780 C   0  0  0  0  0  3  0  0  0  0  0  0
    3.6630   -8.3060    2.3780 C   0  0  0  0  0  0  0  0  0  0  0  0
    3.8270   -9.0330    1.2020 C   0  0  0  0  0  0  0  0  0  0  0  0
    3.0800  -10.2020    0.9930 C   0  0  0  0  0  3  0  0  0  0  0  0
    4.7570   -8.4400    0.3870 N   0  0  0  0  0  0  0  0  0  0  0  0
    5.2040   -7.3850    1.0410 C   0  0  0  0  0  0  0  0  0  0  0  0
    4.5170   -7.2300    2.2360 N   0  0  0  0  0  0  0  0  0  0  0  0
    4.6340   -6.0910    3.1450 C   0  0  0  0  0  3  0  0  0  0  0  0
    4.4410   -4.7370    2.4400 C   0  0  0  0  0  2  0  0  0  0  0  0
    4.6170   -3.5740    3.4150 C   0  0  0  0  0  2  0  0  0  0  0  0
    3.7090   -3.7160    4.6330 C   0  0  0  0  0  2  0  0  0  0  0  0
    3.9210   -5.0520    5.3390 C   0  0  0  0  0  2  0  0  0  0  0  0
    3.7380   -6.2310    4.3860 C   0  0  0  0  0  2  0  0  0  0  0  0
    1.7530  -12.7050    0.8690 O   0  0  0  0  0  0  0  0  0  0  0  0
    1.3550  -11.9010    1.7710 C   0  0  0  0  0  0  0  0  0  0  0  0
    0.3360  -12.0650    2.5140 O   0  0  0  0  0  1  0  0  0  0  0  0
    9.3590   -4.1890   -1.0370 O   0  0  0  0  0  0  0  0  0  0  0  0
   10.2610   -3.6620   -0.0570 C   0  0  0  0  0  2  0  0  0  0  0  0
   11.6340   -3.3060   -0.6530 C   0  0  0  0  0  2  0  0  0  0  0  0
   11.7020   -1.9790   -1.3870 C   0  0  0  0  0  0  0  0  0  0  0  0
   10.5060   -1.2770   -1.6370 C   0  0  0  0  0  3  0  0  0  0  0  0
   10.5050   -0.0820   -2.3550 C   0  0  0  0  0  3  0  0  0  0  0  0
   11.7010    0.4490   -2.8170 C   0  0  0  0  0  3  0  0  0  0  0  0
   12.9010   -0.2020   -2.5350 C   0  0  0  0  0  3  0  0  0  0  0  0
   12.9270   -1.4090   -1.8100 C   0  0  0  0  0  0  0  0  0  0  0  0
   14.2340   -2.0070   -1.5080 C   0  0  0  0  0  0  0  0  0  0  0  0
   14.3740   -3.3900   -1.3350 C   0  0  0  0  0  3  0  0  0  0  0  0
   15.6210   -3.9530   -1.0530 C   0  0  0  0  0  3  0  0  0  0  0  0
   16.7470   -3.1370   -0.9540 C   0  0  0  0  0  3  0  0  0  0  0  0
   16.6280   -1.7620   -1.1360 C   0  0  0  0  0  3  0  0  0  0  0  0
   15.3790   -1.2000   -1.4110 C   0  0  0  0  0  3  0  0  0  0  0  0
  1 14  1  0  0  0  0
  1  2  1  0  0  0  0
  3  2  2  0  0  0  0
  4  3  1  0  0  0  0
  5  6  1  0  0  0  0
  5  4  2  0  0  0  0
  6  1  2  0  0  0  0
  7  8  1  0  0  0  0
  8  9  2  0  0  0  0
 10  9  1  0  0  0  0
 11 10  2  0  0  0  0
 12 11  1  0  0  0  0
 12  7  2  0  0  0  0
 13 14  2  0  0  0  0
 13 11  1  0  0  0  0
 14 15  1  0  0  0  0
 15 10  1  0  0  0  0
 15 16  1  0  0  0  0
 16 21  1  0  0  0  0
 17 16  1  0  0  0  0
 17 18  1  0  0  0  0
 18 19  1  0  0  0  0
 19 20  1  0  0  0  0
 21 20  1  0  0  0  0
 22 23  2  0  0  0  0
 23  7  1  0  0  0  0
 23 24  1  0  0  0  0
 25  4  1  0  0  0  0
 25 26  1  0  0  0  0
 27 26  1  0  0  0  0
 28 27  1  0  0  0  0
 29 28  1  0  0  0  0
 30 29  2  0  0  0  0
 31 32  2  0  0  0  0
 31 30  1  0  0  0  0
 32 33  1  0  0  0  0
 33 34  1  0  0  0  0
 33 28  2  0  0  0  0
 34 39  2  0  0  0  0
 34 35  1  0  0  0  0
 35 36  2  0  0  0  0
 36 37  1  0  0  0  0
 38 37  2  0  0  0  0
 39 38  1  0  0  0  0
M  END
>  <minimizedAffinity>
-10.9885302

$$$$
