
 OpenBabel09122221173D

 39 44  0  0  0  0  0  0  0  0999 V2000
    6.2510   -6.5040    0.5240 C   0  0  0  0  0  0  0  0  0  0  0  0
    7.4480   -6.3010    1.2180 C   0  0  0  0  0  3  0  0  0  0  0  0
    8.4510   -5.4950    0.6700 C   0  0  0  0  0  3  0  0  0  0  0  0
    8.2910   -4.9170   -0.5910 C   0  0  0  0  0  0  0  0  0  0  0  0
    7.0860   -5.0870   -1.2690 C   0  0  0  0  0  3  0  0  0  0  0  0
    6.0800   -5.8920   -0.7230 C   0  0  0  0  0  3  0  0  0  0  0  0
    2.1710  -10.6400    1.9770 C   0  0  0  0  0  0  0  0  0  0  0  0
    2.0370   -9.8860    3.1530 C   0  0  0  0  0  3  0  0  0  0  0  0
    2.7710   -8.7140    3.3780 C   0  0  0  0  0  3  0  0  0  0  0  0
    3.6630   -8.3060    2.3780 C   0  0  0  0  0  0  0  0  0  0  0  0
    3.8270   -9.0330    1.2020 C   0  0  0  0  0  0  0  0  0  0  0  0
    3.0800  -10.2020    0.9930 C   0  0  0  0  0  3  0  0  0  0  0  0
    4.7570   -8.4400    0.3870 N   0  0  0  0  0  0  0  0  0  0  0  0
    5.2040   -7.3850    1.0410 C   0  0  0  0  0  0  0  0  0  0  0  0
    4.5170   -7.2300    2.2360 N   0  0  0  0  0  0  0  0  0  0  0  0
    4.6340   -6.0910    3.1450 C   0  0  0  0  0  3  0  0  0  0  0  0
    4.4410   -4.7370    2.4400 C   0  0  0  0  0  2  0  0  0  0  0  0
    4.6170   -3.5740    3.4150 C   0  0  0  0  0  2  0  0  0  0  0  0
    3.7090   -3.7160    4.6330 C   0  0  0  0  0  2  0  0  0  0  0  0
    3.9210   -5.0520    5.3390 C   0  0  0  0  0  2  0  0  0  0  0  0
    3.7380   -6.2310    4.3860 C   0  0  0  0  0  2  0  0  0  0  0  0
    1.7530  -12.7050    0.8690 O   0  0  0  0  0  0  0  0  0  0  0  0
    1.3550  -11.9010    1.7710 C   0  0  0  0  0  0  0  0  0  0  0  0
    0.3360  -12.0650    2.5140 O   0  0  0  0  0  1  0  0  0  0  0  0
    9.3590   -4.1890   -1.0370 O   0  0  0  0  0  0  0  0  0  0  0  0
   10.2610   -3.6620   -0.0570 C   0  0  0  0  0  2  0  0  0  0  0  0
   11.6340   -3.3060   -0.6530 C   0  0  0  0  0  2  0  0  0  0  0  0
   11.7020   -1.9790   -1.3870 C   0  0  0  0  0  0  0  0  0  0  0  0
   10.5060   -1.2770   -1.6370 C   0  0  0  0  0  3  0  0  0  0  0  0
   10.5050   -0.0820   -2.3550 C   0  0  0  0  0  3  0  0  0  0  0  0
   11.7010    0.4490   -2.8170 C   0  0  0  0  0  3  0  0  0  0  0  0
   12.9010   -0.2020   -2.5350 C   0  0  0  0  0  3  0  0  0  0  0  0
   12.9270   -1.4090   -1.8100 C   0  0  0  0  0  0  0  0  0  0  0  0
   14.2340   -2.0070   -1.5080 C   0  0  0  0  0  0  0  0  0  0  0  0
   14.3740   -3.3900   -1.3350 C   0  0  0  0  0  3  0  0  0  0  0  0
   15.6210   -3.9530   -1.0530 C   0  0  0  0  0  3  0  0  0  0  0  0
   16.7470   -3.1370   -0.9540 C   0  0  0  0  0  3  0  0  0  0  0  0
   16.6280   -1.7620   -1.1360 C   0  0  0  0  0  3  0  0  0  0  0  0
   15.3790   -1.2000   -1.4110 C   0  0  0  0  0  3  0  0  0  0  0  0
  1 14  1  0  0  0  0
  1  2  1  0  0  0  0
  3  2  2  0  0  0  0
  4  3  1  0  0  0  0
  5  6  1  0  0  0  0
  5  4  2  0  0  0  0
  6  1  2  0  0  0  0
  7  8  1  0  0  0  0
  8  9  2  0  0  0  0
 10  9  1  0  0  0  0
 11 10  2  0  0  0  0
 12 11  1  0  0  0  0
 12  7  2  0  0  0  0
 13 14  2  0  0  0  0
 13 11  1  0  0  0  0
 14 15  1  0  0  0  0
 15 10  1  0  0  0  0
 15 16  1  0  0  0  0
 16 21  1  0  0  0  0
 17 16  1  0  0  0  0
 17 18  1  0  0  0  0
 18 19  1  0  0  0  0
 19 20  1  0  0  0  0
 21 20  1  0  0  0  0
 22 23  2  0  0  0  0
 23  7  1  0  0  0  0
 23 24  1  0  0  0  0
 25  4  1  0  0  0  0
 25 26  1  0  0  0  0
 27 26  1  0  0  0  0
 28 27  1  0  0  0  0
 29 28  1  0  0  0  0
 30 29  2  0  0  0  0
 31 32  2  0  0  0  0
 31 30  1  0  0  0  0
 32 33  1  0  0  0  0
 33 34  1  0  0  0  0
 33 28  2  0  0  0  0
 34 39  2  0  0  0  0
 34 35  1  0  0  0  0
 35 36  2  0  0  0  0
 36 37  1  0  0  0  0
 38 37  2  0  0  0  0
 39 38  1  0  0  0  0
M  END
>  <minimizedAffinity>
-10.9885302

$$$$

 OpenBabel09122221173D

 39 44  0  0  0  0  0  0  0  0999 V2000
    6.1710   -6.6950    0.4690 C   0  0  0  0  0  0  0  0  0  0  0  0
    6.0000   -5.9880   -0.7260 C   0  0  0  0  0  3  0  0  0  0  0  0
    7.0210   -5.1650   -1.2090 C   0  0  0  0  0  3  0  0  0  0  0  0
    8.2060   -5.0030   -0.4890 C   0  0  0  0  0  0  0  0  0  0  0  0
    8.3960   -5.7320    0.6830 C   0  0  0  0  0  3  0  0  0  0  0  0
    7.3760   -6.5580    1.1680 C   0  0  0  0  0  3  0  0  0  0  0  0
    1.9820  -10.6390    2.1300 C   0  0  0  0  0  0  0  0  0  0  0  0
    1.8850   -9.8340    3.2760 C   0  0  0  0  0  3  0  0  0  0  0  0
    2.6570   -8.6770    3.4460 C   0  0  0  0  0  3  0  0  0  0  0  0
    3.5500   -8.3390    2.4210 C   0  0  0  0  0  0  0  0  0  0  0  0
    3.6780   -9.1170    1.2740 C   0  0  0  0  0  0  0  0  0  0  0  0
    2.8930  -10.2700    1.1200 C   0  0  0  0  0  3  0  0  0  0  0  0
    4.6170   -8.5860    0.4260 N   0  0  0  0  0  0  0  0  0  0  0  0
    5.1030   -7.5210    1.0330 C   0  0  0  0  0  0  0  0  0  0  0  0
    4.4350   -7.2950    2.2270 N   0  0  0  0  0  0  0  0  0  0  0  0
    4.5970   -6.1260    3.0870 C   0  0  0  0  0  3  0  0  0  0  0  0
    4.2140   -4.8080    2.3900 C   0  0  0  0  0  2  0  0  0  0  0  0
    4.4420   -3.6080    3.3070 C   0  0  0  0  0  2  0  0  0  0  0  0
    3.7240   -3.7740    4.6430 C   0  0  0  0  0  2  0  0  0  0  0  0
    4.1240   -5.0720    5.3390 C   0  0  0  0  0  2  0  0  0  0  0  0
    3.8940   -6.2880    4.4440 C   0  0  0  0  0  2  0  0  0  0  0  0
    1.5370  -12.7740    1.1760 O   0  0  0  0  0  0  0  0  0  0  0  0
    1.1250  -11.8810    1.9840 C   0  0  0  0  0  0  0  0  0  0  0  0
    0.0620  -11.9410    2.6780 O   0  0  0  0  0  1  0  0  0  0  0  0
    9.1090   -4.1370   -1.0420 O   0  0  0  0  0  0  0  0  0  0  0  0
   10.4860   -4.2920   -0.6790 C   0  0  0  0  0  2  0  0  0  0  0  0
   10.9210   -3.3030    0.4170 C   0  0  0  0  0  2  0  0  0  0  0  0
   10.5080   -1.8600    0.1940 C   0  0  0  0  0  0  0  0  0  0  0  0
   10.8560   -1.2320   -1.0200 C   0  0  0  0  0  3  0  0  0  0  0  0
   10.5510    0.1070   -1.2540 C   0  0  0  0  0  3  0  0  0  0  0  0
    9.8710    0.8420   -0.2920 C   0  0  0  0  0  3  0  0  0  0  0  0
    9.4720    0.2260    0.8930 C   0  0  0  0  0  3  0  0  0  0  0  0
    9.7680   -1.1270    1.1510 C   0  0  0  0  0  0  0  0  0  0  0  0
    9.2680   -1.7170    2.4000 C   0  0  0  0  0  0  0  0  0  0  0  0
    8.3360   -2.7630    2.3820 C   0  0  0  0  0  3  0  0  0  0  0  0
    7.8680   -3.3240    3.5730 C   0  0  0  0  0  3  0  0  0  0  0  0
    8.3390   -2.8530    4.7970 C   0  0  0  0  0  3  0  0  0  0  0  0
    9.2750   -1.8230    4.8330 C   0  0  0  0  0  3  0  0  0  0  0  0
    9.7370   -1.2580    3.6410 C   0  0  0  0  0  3  0  0  0  0  0  0
  1 14  1  0  0  0  0
  1  6  1  0  0  0  0
  2  1  2  0  0  0  0
  3  2  1  0  0  0  0
  3  4  2  0  0  0  0
  4  5  1  0  0  0  0
  5  6  2  0  0  0  0
  7  8  1  0  0  0  0
  8  9  2  0  0  0  0
 10  9  1  0  0  0  0
 11 10  2  0  0  0  0
 12 11  1  0  0  0  0
 12  7  2  0  0  0  0
 13 14  2  0  0  0  0
 13 11  1  0  0  0  0
 14 15  1  0  0  0  0
 15 10  1  0  0  0  0
 15 16  1  0  0  0  0
 16 21  1  0  0  0  0
 17 16  1  0  0  0  0
 17 18  1  0  0  0  0
 18 19  1  0  0  0  0
 19 20  1  0  0  0  0
 21 20  1  0  0  0  0
 22 23  2  0  0  0  0
 23  7  1  0  0  0  0
 23 24  1  0  0  0  0
 25 26  1  0  0  0  0
 25  4  1  0  0  0  0
 26 27  1  0  0  0  0
 28 27  1  0  0  0  0
 28 33  1  0  0  0  0
 29 28  2  0  0  0  0
 30 29  1  0  0  0  0
 30 31  2  0  0  0  0
 31 32  1  0  0  0  0
 32 33  2  0  0  0  0
 33 34  1  0  0  0  0
 34 39  1  0  0  0  0
 35 34  2  0  0  0  0
 35 36  1  0  0  0  0
 36 37  2  0  0  0  0
 37 38  1  0  0  0  0
 39 38  2  0  0  0  0
M  END
>  <minimizedAffinity>
-10.5100708

$$$$

 OpenBabel09122221173D

 39 44  0  0  0  0  0  0  0  0999 V2000
    6.1980   -6.5060    0.4640 C   0  0  0  0  0  0  0  0  0  0  0  0
    7.3870   -6.2580    1.1580 C   0  0  0  0  0  3  0  0  0  0  0  0
    8.3650   -5.4260    0.6040 C   0  0  0  0  0  3  0  0  0  0  0  0
    8.1890   -4.8650   -0.6620 C   0  0  0  0  0  0  0  0  0  0  0  0
    6.9910   -5.0790   -1.3410 C   0  0  0  0  0  3  0  0  0  0  0  0
    6.0100   -5.9100   -0.7890 C   0  0  0  0  0  3  0  0  0  0  0  0
    2.2420  -10.7510    1.9430 C   0  0  0  0  0  0  0  0  0  0  0  0
    2.0930   -9.9990    3.1190 C   0  0  0  0  0  3  0  0  0  0  0  0
    2.7950   -8.8070    3.3390 C   0  0  0  0  0  3  0  0  0  0  0  0
    3.6710   -8.3760    2.3340 C   0  0  0  0  0  0  0  0  0  0  0  0
    3.8490   -9.1000    1.1570 C   0  0  0  0  0  0  0  0  0  0  0  0
    3.1330  -10.2890    0.9540 C   0  0  0  0  0  3  0  0  0  0  0  0
    4.7570   -8.4820    0.3370 N   0  0  0  0  0  0  0  0  0  0  0  0
    5.1780   -7.4150    0.9880 C   0  0  0  0  0  0  0  0  0  0  0  0
    4.4940   -7.2760    2.1860 N   0  0  0  0  0  0  0  0  0  0  0  0
    4.5840   -6.1340    3.0920 C   0  0  0  0  0  3  0  0  0  0  0  0
    4.2410   -4.7970    2.4110 C   0  0  0  0  0  2  0  0  0  0  0  0
    4.3930   -3.6250    3.3800 C   0  0  0  0  0  2  0  0  0  0  0  0
    3.5810   -3.8380    4.6540 C   0  0  0  0  0  2  0  0  0  0  0  0
    3.9410   -5.1560    5.3360 C   0  0  0  0  0  2  0  0  0  0  0  0
    3.7860   -6.3440    4.3890 C   0  0  0  0  0  2  0  0  0  0  0  0
    1.3420  -12.4580    0.5490 O   0  0  0  0  0  0  0  0  0  0  0  0
    1.4600  -12.0340    1.7430 C   0  0  0  0  0  0  0  0  0  0  0  0
    0.9810  -12.5930    2.7800 O   0  0  0  0  0  1  0  0  0  0  0  0
    9.2340   -4.1070   -1.1140 O   0  0  0  0  0  0  0  0  0  0  0  0
   10.5330   -4.3760   -0.5730 C   0  0  0  0  0  2  0  0  0  0  0  0
   11.2150   -3.1100   -0.0250 C   0  0  0  0  0  2  0  0  0  0  0  0
   10.3300   -2.2000    0.8070 C   0  0  0  0  0  0  0  0  0  0  0  0
    9.8160   -2.6820    2.0280 C   0  0  0  0  0  3  0  0  0  0  0  0
    8.9540   -1.9090    2.8040 C   0  0  0  0  0  3  0  0  0  0  0  0
    8.6070   -0.6300    2.3900 C   0  0  0  0  0  3  0  0  0  0  0  0
    9.1460   -0.1150    1.2120 C   0  0  0  0  0  3  0  0  0  0  0  0
   10.0200   -0.8770    0.4120 C   0  0  0  0  0  0  0  0  0  0  0  0
   10.5870   -0.2450   -0.7870 C   0  0  0  0  0  0  0  0  0  0  0  0
   11.2270    0.9990   -0.7140 C   0  0  0  0  0  3  0  0  0  0  0  0
   11.7690    1.5920   -1.8570 C   0  0  0  0  0  3  0  0  0  0  0  0
   11.6890    0.9380   -3.0850 C   0  0  0  0  0  3  0  0  0  0  0  0
   11.0680   -0.3050   -3.1730 C   0  0  0  0  0  3  0  0  0  0  0  0
   10.5200   -0.8940   -2.0300 C   0  0  0  0  0  3  0  0  0  0  0  0
  1 14  1  0  0  0  0
  1  2  1  0  0  0  0
  3  2  2  0  0  0  0
  4  3  1  0  0  0  0
  5  6  1  0  0  0  0
  5  4  2  0  0  0  0
  6  1  2  0  0  0  0
  7  8  1  0  0  0  0
  8  9  2  0  0  0  0
 10  9  1  0  0  0  0
 11 10  2  0  0  0  0
 12 11  1  0  0  0  0
 12  7  2  0  0  0  0
 13 14  2  0  0  0  0
 13 11  1  0  0  0  0
 14 15  1  0  0  0  0
 15 10  1  0  0  0  0
 15 16  1  0  0  0  0
 16 21  1  0  0  0  0
 17 16  1  0  0  0  0
 17 18  1  0  0  0  0
 18 19  1  0  0  0  0
 19 20  1  0  0  0  0
 21 20  1  0  0  0  0
 22 23  2  0  0  0  0
 23  7  1  0  0  0  0
 23 24  1  0  0  0  0
 25  4  1  0  0  0  0
 25 26  1  0  0  0  0
 26 27  1  0  0  0  0
 27 28  1  0  0  0  0
 28 29  1  0  0  0  0
 29 30  2  0  0  0  0
 31 30  1  0  0  0  0
 32 31  2  0  0  0  0
 33 28  2  0  0  0  0
 33 32  1  0  0  0  0
 34 35  1  0  0  0  0
 34 33  1  0  0  0  0
 36 35  2  0  0  0  0
 37 36  1  0  0  0  0
 38 37  2  0  0  0  0
 38 39  1  0  0  0  0
 39 34  2  0  0  0  0
M  END
>  <minimizedAffinity>
-10.2564735

$$$$

 OpenBabel09122221173D

 39 44  0  0  0  0  0  0  0  0999 V2000
    5.9810   -6.6110    0.6010 C   0  0  0  0  0  0  0  0  0  0  0  0
    7.1880   -6.3790    1.2710 C   0  0  0  0  0  3  0  0  0  0  0  0
    8.1760   -5.5820    0.6850 C   0  0  0  0  0  3  0  0  0  0  0  0
    7.9920   -5.0400   -0.5890 C   0  0  0  0  0  0  0  0  0  0  0  0
    6.7780   -5.2380   -1.2440 C   0  0  0  0  0  3  0  0  0  0  0  0
    5.7870   -6.0350   -0.6590 C   0  0  0  0  0  3  0  0  0  0  0  0
    1.9670  -10.7400    2.2410 C   0  0  0  0  0  0  0  0  0  0  0  0
    1.8280   -9.9410    3.3870 C   0  0  0  0  0  3  0  0  0  0  0  0
    2.5460   -8.7510    3.5600 C   0  0  0  0  0  3  0  0  0  0  0  0
    3.4280   -8.3720    2.5400 C   0  0  0  0  0  0  0  0  0  0  0  0
    3.5970   -9.1430    1.3930 C   0  0  0  0  0  0  0  0  0  0  0  0
    2.8650  -10.3300    1.2360 C   0  0  0  0  0  3  0  0  0  0  0  0
    4.5140   -8.5700    0.5500 N   0  0  0  0  0  0  0  0  0  0  0  0
    4.9490   -7.4850    1.1590 C   0  0  0  0  0  0  0  0  0  0  0  0
    4.2660   -7.2900    2.3500 N   0  0  0  0  0  0  0  0  0  0  0  0
    4.3710   -6.1140    3.2110 C   0  0  0  0  0  3  0  0  0  0  0  0
    4.2170   -4.7900    2.4430 C   0  0  0  0  0  2  0  0  0  0  0  0
    4.3800   -3.5870    3.3710 C   0  0  0  0  0  2  0  0  0  0  0  0
    3.4340   -3.6650    4.5660 C   0  0  0  0  0  2  0  0  0  0  0  0
    3.6070   -4.9710    5.3360 C   0  0  0  0  0  2  0  0  0  0  0  0
    3.4370   -6.1890    4.4300 C   0  0  0  0  0  2  0  0  0  0  0  0
    1.6140  -12.8870    1.2730 O   0  0  0  0  0  0  0  0  0  0  0  0
    1.1680  -12.0190    2.0900 C   0  0  0  0  0  0  0  0  0  0  0  0
    0.1130  -12.1350    2.7900 O   0  0  0  0  0  1  0  0  0  0  0  0
    9.0470   -4.3170   -1.0720 O   0  0  0  0  0  0  0  0  0  0  0  0
   10.0070   -3.8290   -0.1270 C   0  0  0  0  0  2  0  0  0  0  0  0
   10.4600   -2.3920   -0.4380 C   0  0  0  0  0  2  0  0  0  0  0  0
   11.6750   -2.2710   -1.3380 C   0  0  0  0  0  0  0  0  0  0  0  0
   12.2320   -3.4420   -1.8910 C   0  0  0  0  0  3  0  0  0  0  0  0
   13.3810   -3.3950   -2.6790 C   0  0  0  0  0  3  0  0  0  0  0  0
   13.9840   -2.1740   -2.9510 C   0  0  0  0  0  3  0  0  0  0  0  0
   13.4200   -0.9990   -2.4580 C   0  0  0  0  0  3  0  0  0  0  0  0
   12.2580   -1.0220   -1.6610 C   0  0  0  0  0  0  0  0  0  0  0  0
   11.6950    0.2610   -1.2220 C   0  0  0  0  0  0  0  0  0  0  0  0
   10.4790    0.3170   -0.5270 C   0  0  0  0  0  3  0  0  0  0  0  0
    9.9510    1.5410   -0.1080 C   0  0  0  0  0  3  0  0  0  0  0  0
   10.6420    2.7230   -0.3690 C   0  0  0  0  0  3  0  0  0  0  0  0
   11.8570    2.6850   -1.0470 C   0  0  0  0  0  3  0  0  0  0  0  0
   12.3810    1.4610   -1.4720 C   0  0  0  0  0  3  0  0  0  0  0  0
  1 14  1  0  0  0  0
  1  2  1  0  0  0  0
  3  2  2  0  0  0  0
  4  3  1  0  0  0  0
  5  6  1  0  0  0  0
  5  4  2  0  0  0  0
  6  1  2  0  0  0  0
  7  8  1  0  0  0  0
  8  9  2  0  0  0  0
 10  9  1  0  0  0  0
 11 10  2  0  0  0  0
 12 11  1  0  0  0  0
 12  7  2  0  0  0  0
 13 14  2  0  0  0  0
 13 11  1  0  0  0  0
 14 15  1  0  0  0  0
 15 10  1  0  0  0  0
 15 16  1  0  0  0  0
 16 21  1  0  0  0  0
 17 16  1  0  0  0  0
 17 18  1  0  0  0  0
 18 19  1  0  0  0  0
 19 20  1  0  0  0  0
 21 20  1  0  0  0  0
 22 23  2  0  0  0  0
 23  7  1  0  0  0  0
 23 24  1  0  0  0  0
 25  4  1  0  0  0  0
 25 26  1  0  0  0  0
 27 26  1  0  0  0  0
 28 27  1  0  0  0  0
 29 28  2  0  0  0  0
 30 29  1  0  0  0  0
 31 30  2  0  0  0  0
 31 32  1  0  0  0  0
 32 33  2  0  0  0  0
 33 28  1  0  0  0  0
 33 34  1  0  0  0  0
 34 35  1  0  0  0  0
 35 36  2  0  0  0  0
 37 36  1  0  0  0  0
 38 37  2  0  0  0  0
 39 34  2  0  0  0  0
 39 38  1  0  0  0  0
M  END
>  <minimizedAffinity>
-9.8892498

$$$$

 OpenBabel09122221173D

 39 44  0  0  0  0  0  0  0  0999 V2000
    9.0540   -2.6580    0.7910 C   0  0  0  0  0  0  0  0  0  0  0  0
    8.5820   -3.0080    2.0600 C   0  0  0  0  0  3  0  0  0  0  0  0
    8.0800   -4.2920    2.2950 C   0  0  0  0  0  3  0  0  0  0  0  0
    8.0050   -5.2280    1.2620 C   0  0  0  0  0  0  0  0  0  0  0  0
    8.5080   -4.8960    0.0050 C   0  0  0  0  0  3  0  0  0  0  0  0
    9.0120   -3.6120   -0.2320 C   0  0  0  0  0  3  0  0  0  0  0  0
   10.4770    3.1300    0.2190 C   0  0  0  0  0  0  0  0  0  0  0  0
   11.4930    2.6490   -0.6220 C   0  0  0  0  0  3  0  0  0  0  0  0
   11.6480    1.2850   -0.9020 C   0  0  0  0  0  3  0  0  0  0  0  0
   10.7450    0.3940   -0.3070 C   0  0  0  0  0  0  0  0  0  0  0  0
    9.7290    0.8360    0.5370 C   0  0  0  0  0  0  0  0  0  0  0  0
    9.5880    2.2070    0.8020 C   0  0  0  0  0  3  0  0  0  0  0  0
    8.9850   -0.2190    0.9990 N   0  0  0  0  0  0  0  0  0  0  0  0
    9.5340   -1.3080    0.4950 C   0  0  0  0  0  0  0  0  0  0  0  0
   10.5740   -0.9750   -0.3600 N   0  0  0  0  0  0  0  0  0  0  0  0
   11.3080   -1.9080   -1.2120 C   0  0  0  0  0  3  0  0  0  0  0  0
   12.0070   -1.2180   -2.3960 C   0  0  0  0  0  2  0  0  0  0  0  0
   12.7230   -2.2320   -3.2860 C   0  0  0  0  0  2  0  0  0  0  0  0
   13.6870   -3.1030   -2.4860 C   0  0  0  0  0  2  0  0  0  0  0  0
   12.9830   -3.8020   -1.3260 C   0  0  0  0  0  2  0  0  0  0  0  0
   12.2690   -2.8050   -0.4150 C   0  0  0  0  0  2  0  0  0  0  0  0
   11.3140    5.1840    1.0840 O   0  0  0  0  0  1  0  0  0  0  0  0
   10.3410    4.6150    0.4930 C   0  0  0  0  0  0  0  0  0  0  0  0
    9.2700    5.1840    0.1120 O   0  0  0  0  0  0  0  0  0  0  0  0
    7.4550   -6.4320    1.6050 O   0  0  0  0  0  0  0  0  0  0  0  0
    6.6650   -7.1070    0.6190 C   0  0  0  0  0  2  0  0  0  0  0  0
    5.1950   -6.6540    0.6320 C   0  0  0  0  0  2  0  0  0  0  0  0
    4.6650   -6.1960    1.9780 C   0  0  0  0  0  0  0  0  0  0  0  0
    4.5340   -4.8140    2.2240 C   0  0  0  0  0  3  0  0  0  0  0  0
    4.1050   -4.3370    3.4610 C   0  0  0  0  0  3  0  0  0  0  0  0
    3.7760   -5.2300    4.4720 C   0  0  0  0  0  3  0  0  0  0  0  0
    3.8480   -6.6020    4.2330 C   0  0  0  0  0  3  0  0  0  0  0  0
    4.2770   -7.1070    2.9890 C   0  0  0  0  0  0  0  0  0  0  0  0
    4.2760   -8.5630    2.7970 C   0  0  0  0  0  0  0  0  0  0  0  0
    5.2840   -9.3650    3.3490 C   0  0  0  0  0  3  0  0  0  0  0  0
    5.2740  -10.7510    3.1670 C   0  0  0  0  0  3  0  0  0  0  0  0
    4.2470  -11.3510    2.4410 C   0  0  0  0  0  3  0  0  0  0  0  0
    3.2310  -10.5700    1.8970 C   0  0  0  0  0  3  0  0  0  0  0  0
    3.2450   -9.1840    2.0730 C   0  0  0  0  0  3  0  0  0  0  0  0
  1  2  1  0  0  0  0
  2  3  2  0  0  0  0
  4 25  1  0  0  0  0
  4  3  1  0  0  0  0
  5  4  2  0  0  0  0
  6  5  1  0  0  0  0
  6  1  2  0  0  0  0
  7 23  1  0  0  0  0
  7 12  1  0  0  0  0
  8  7  2  0  0  0  0
  9  8  1  0  0  0  0
  9 10  2  0  0  0  0
 10 11  1  0  0  0  0
 11 12  2  0  0  0  0
 11 13  1  0  0  0  0
 14  1  1  0  0  0  0
 14 13  2  0  0  0  0
 15 10  1  0  0  0  0
 15 14  1  0  0  0  0
 16 21  1  0  0  0  0
 16 15  1  0  0  0  0
 17 16  1  0  0  0  0
 18 19  1  0  0  0  0
 18 17  1  0  0  0  0
 19 20  1  0  0  0  0
 20 21  1  0  0  0  0
 23 22  1  0  0  0  0
 24 23  2  0  0  0  0
 26 27  1  0  0  0  0
 26 25  1  0  0  0  0
 27 28  1  0  0  0  0
 28 29  2  0  0  0  0
 28 33  1  0  0  0  0
 29 30  1  0  0  0  0
 30 31  2  0  0  0  0
 32 31  1  0  0  0  0
 33 32  2  0  0  0  0
 34 33  1  0  0  0  0
 34 35  1  0  0  0  0
 36 35  2  0  0  0  0
 37 36  1  0  0  0  0
 38 39  1  0  0  0  0
 38 37  2  0  0  0  0
 39 34  2  0  0  0  0
M  END
>  <minimizedAffinity>
-9.30486965

$$$$

 OpenBabel09122221173D

 39 44  0  0  0  0  0  0  0  0999 V2000
    6.0130   -6.7680    0.5370 C   0  0  0  0  0  0  0  0  0  0  0  0
    5.8330   -6.0720   -0.6620 C   0  0  0  0  0  3  0  0  0  0  0  0
    6.8440   -5.2360   -1.1490 C   0  0  0  0  0  3  0  0  0  0  0  0
    8.0250   -5.0540   -0.4290 C   0  0  0  0  0  0  0  0  0  0  0  0
    8.2240   -5.7740    0.7470 C   0  0  0  0  0  3  0  0  0  0  0  0
    7.2150   -6.6110    1.2360 C   0  0  0  0  0  3  0  0  0  0  0  0
    1.8920  -10.7710    2.2290 C   0  0  0  0  0  0  0  0  0  0  0  0
    1.7580   -9.9420    3.3530 C   0  0  0  0  0  3  0  0  0  0  0  0
    2.5000   -8.7630    3.5060 C   0  0  0  0  0  3  0  0  0  0  0  0
    3.4010   -8.4280    2.4880 C   0  0  0  0  0  0  0  0  0  0  0  0
    3.5650   -9.2300    1.3610 C   0  0  0  0  0  0  0  0  0  0  0  0
    2.8100  -10.4040    1.2240 C   0  0  0  0  0  3  0  0  0  0  0  0
    4.5040   -8.6970    0.5160 N   0  0  0  0  0  0  0  0  0  0  0  0
    4.9560   -7.6060    1.1040 C   0  0  0  0  0  0  0  0  0  0  0  0
    4.2640   -7.3690    2.2820 N   0  0  0  0  0  0  0  0  0  0  0  0
    4.3850   -6.1750    3.1160 C   0  0  0  0  0  3  0  0  0  0  0  0
    4.1410   -4.8700    2.3380 C   0  0  0  0  0  2  0  0  0  0  0  0
    4.3230   -3.6470    3.2340 C   0  0  0  0  0  2  0  0  0  0  0  0
    3.4560   -3.7310    4.4870 C   0  0  0  0  0  2  0  0  0  0  0  0
    3.7170   -5.0180    5.2660 C   0  0  0  0  0  2  0  0  0  0  0  0
    3.5310   -6.2560    4.3910 C   0  0  0  0  0  2  0  0  0  0  0  0
    1.3040  -12.7800    1.0940 O   0  0  0  0  0  0  0  0  0  0  0  0
    1.0670  -12.0360    2.0990 C   0  0  0  0  0  0  0  0  0  0  0  0
    0.2020  -12.2640    3.0020 O   0  0  0  0  0  1  0  0  0  0  0  0
    8.9170   -4.1790   -0.9850 O   0  0  0  0  0  0  0  0  0  0  0  0
   10.3030   -4.3470   -0.6630 C   0  0  0  0  0  2  0  0  0  0  0  0
   10.7950   -3.3230    0.3730 C   0  0  0  0  0  2  0  0  0  0  0  0
   10.7300   -1.8700   -0.0630 C   0  0  0  0  0  0  0  0  0  0  0  0
    9.7460   -1.0340    0.5030 C   0  0  0  0  0  3  0  0  0  0  0  0
    9.6050    0.2930    0.0980 C   0  0  0  0  0  3  0  0  0  0  0  0
   10.4600    0.8180   -0.8620 C   0  0  0  0  0  3  0  0  0  0  0  0
   11.4730    0.0230   -1.3960 C   0  0  0  0  0  3  0  0  0  0  0  0
   11.6350   -1.3200   -1.0010 C   0  0  0  0  0  0  0  0  0  0  0  0
   12.7580   -2.0770   -1.5690 C   0  0  0  0  0  0  0  0  0  0  0  0
   13.7200   -2.6720   -0.7430 C   0  0  0  0  0  3  0  0  0  0  0  0
   14.7830   -3.3950   -1.2900 C   0  0  0  0  0  3  0  0  0  0  0  0
   14.8870   -3.5420   -2.6720 C   0  0  0  0  0  3  0  0  0  0  0  0
   13.9320   -2.9680   -3.5070 C   0  0  0  0  0  3  0  0  0  0  0  0
   12.8740   -2.2390   -2.9590 C   0  0  0  0  0  3  0  0  0  0  0  0
  1 14  1  0  0  0  0
  1  6  1  0  0  0  0
  2  1  2  0  0  0  0
  3  2  1  0  0  0  0
  3  4  2  0  0  0  0
  4  5  1  0  0  0  0
  5  6  2  0  0  0  0
  7  8  1  0  0  0  0
  8  9  2  0  0  0  0
 10  9  1  0  0  0  0
 11 10  2  0  0  0  0
 12 11  1  0  0  0  0
 12  7  2  0  0  0  0
 13 14  2  0  0  0  0
 13 11  1  0  0  0  0
 14 15  1  0  0  0  0
 15 10  1  0  0  0  0
 15 16  1  0  0  0  0
 16 21  1  0  0  0  0
 17 16  1  0  0  0  0
 17 18  1  0  0  0  0
 18 19  1  0  0  0  0
 19 20  1  0  0  0  0
 21 20  1  0  0  0  0
 22 23  2  0  0  0  0
 23  7  1  0  0  0  0
 23 24  1  0  0  0  0
 25 26  1  0  0  0  0
 25  4  1  0  0  0  0
 26 27  1  0  0  0  0
 28 27  1  0  0  0  0
 28 29  1  0  0  0  0
 30 29  2  0  0  0  0
 31 30  1  0  0  0  0
 32 33  1  0  0  0  0
 32 31  2  0  0  0  0
 33 28  2  0  0  0  0
 34 33  1  0  0  0  0
 34 35  1  0  0  0  0
 36 35  2  0  0  0  0
 37 36  1  0  0  0  0
 38 39  1  0  0  0  0
 38 37  2  0  0  0  0
 39 34  2  0  0  0  0
M  END
>  <minimizedAffinity>
-9.02899933

$$$$

 OpenBabel09122221173D

 39 44  0  0  0  0  0  0  0  0999 V2000
    9.2610   -1.5460    3.0380 C   0  0  0  0  0  0  0  0  0  0  0  0
    9.7820   -1.7430    4.3210 C   0  0  0  0  0  3  0  0  0  0  0  0
   10.2940   -0.6620    5.0450 C   0  0  0  0  0  3  0  0  0  0  0  0
   10.3310    0.6170    4.4860 C   0  0  0  0  0  0  0  0  0  0  0  0
    9.7800    0.8240    3.2240 C   0  0  0  0  0  3  0  0  0  0  0  0
    9.2650   -0.2560    2.4970 C   0  0  0  0  0  3  0  0  0  0  0  0
    6.5910   -6.1610    0.3110 C   0  0  0  0  0  0  0  0  0  0  0  0
    7.5140   -5.9020   -0.7150 C   0  0  0  0  0  3  0  0  0  0  0  0
    8.4720   -4.8850   -0.6190 C   0  0  0  0  0  3  0  0  0  0  0  0
    8.4840   -4.1140    0.5500 C   0  0  0  0  0  0  0  0  0  0  0  0
    7.5800   -4.3380    1.5850 C   0  0  0  0  0  0  0  0  0  0  0  0
    6.6300   -5.3650    1.4720 C   0  0  0  0  0  3  0  0  0  0  0  0
    7.7860   -3.4550    2.6130 N   0  0  0  0  0  0  0  0  0  0  0  0
    8.7680   -2.6630    2.2300 C   0  0  0  0  0  0  0  0  0  0  0  0
    9.2680   -3.0700    1.0020 N   0  0  0  0  0  0  0  0  0  0  0  0
   10.4530   -2.5280    0.3420 C   0  0  0  0  0  3  0  0  0  0  0  0
   11.5320   -3.5920    0.0740 C   0  0  0  0  0  2  0  0  0  0  0  0
   12.7710   -2.9760   -0.5730 C   0  0  0  0  0  2  0  0  0  0  0  0
   12.4190   -2.1940   -1.8350 C   0  0  0  0  0  2  0  0  0  0  0  0
   11.3640   -1.1260   -1.5590 C   0  0  0  0  0  2  0  0  0  0  0  0
   10.1100   -1.7210   -0.9200 C   0  0  0  0  0  2  0  0  0  0  0  0
    5.4790   -7.8310   -0.9710 O   0  0  0  0  0  0  0  0  0  0  0  0
    5.5720   -7.2750    0.1690 C   0  0  0  0  0  0  0  0  0  0  0  0
    4.8880   -7.5740    1.1980 O   0  0  0  0  0  1  0  0  0  0  0  0
   10.8960    1.5810    5.2740 O   0  0  0  0  0  0  0  0  0  0  0  0
   10.2440    2.8550    5.3360 C   0  0  0  0  0  2  0  0  0  0  0  0
   11.1860    4.0160    4.9710 C   0  0  0  0  0  2  0  0  0  0  0  0
   12.5440    3.6080    4.4290 C   0  0  0  0  0  0  0  0  0  0  0  0
   13.5630    3.2600    5.3390 C   0  0  0  0  0  3  0  0  0  0  0  0
   14.8440    2.9330    4.8990 C   0  0  0  0  0  3  0  0  0  0  0  0
   15.1280    2.9220    3.5400 C   0  0  0  0  0  3  0  0  0  0  0  0
   14.1210    3.2120    2.6210 C   0  0  0  0  0  3  0  0  0  0  0  0
   12.8190    3.5440    3.0430 C   0  0  0  0  0  0  0  0  0  0  0  0
   11.7990    3.7860    2.0130 C   0  0  0  0  0  0  0  0  0  0  0  0
   11.5830    2.8640    0.9800 C   0  0  0  0  0  3  0  0  0  0  0  0
   10.6080    3.0970    0.0060 C   0  0  0  0  0  3  0  0  0  0  0  0
    9.8290    4.2510    0.0640 C   0  0  0  0  0  3  0  0  0  0  0  0
   10.0220    5.1710    1.0910 C   0  0  0  0  0  3  0  0  0  0  0  0
   11.0020    4.9410    2.0600 C   0  0  0  0  0  3  0  0  0  0  0  0
  1  2  1  0  0  0  0
  2  3  2  0  0  0  0
  4  3  1  0  0  0  0
  4 25  1  0  0  0  0
  5  4  2  0  0  0  0
  6  1  2  0  0  0  0
  6  5  1  0  0  0  0
  7 12  1  0  0  0  0
  8  9  1  0  0  0  0
  8  7  2  0  0  0  0
  9 10  2  0  0  0  0
 10 15  1  0  0  0  0
 10 11  1  0  0  0  0
 11 13  1  0  0  0  0
 12 11  2  0  0  0  0
 14 13  2  0  0  0  0
 14  1  1  0  0  0  0
 15 14  1  0  0  0  0
 16 15  1  0  0  0  0
 17 16  1  0  0  0  0
 18 17  1  0  0  0  0
 19 20  1  0  0  0  0
 19 18  1  0  0  0  0
 20 21  1  0  0  0  0
 21 16  1  0  0  0  0
 22 23  2  0  0  0  0
 23  7  1  0  0  0  0
 23 24  1  0  0  0  0
 25 26  1  0  0  0  0
 27 26  1  0  0  0  0
 28 27  1  0  0  0  0
 28 29  1  0  0  0  0
 30 29  2  0  0  0  0
 31 30  1  0  0  0  0
 32 33  1  0  0  0  0
 32 31  2  0  0  0  0
 33 28  2  0  0  0  0
 34 39  1  0  0  0  0
 34 33  1  0  0  0  0
 35 34  2  0  0  0  0
 36 37  2  0  0  0  0
 36 35  1  0  0  0  0
 37 38  1  0  0  0  0
 38 39  2  0  0  0  0
M  END
>  <minimizedAffinity>
-8.9184742

$$$$

 OpenBabel09122221173D

 39 44  0  0  0  0  0  0  0  0999 V2000
    6.5510   -6.2940    0.8760 C   0  0  0  0  0  0  0  0  0  0  0  0
    5.3020   -6.2240    0.2500 C   0  0  0  0  0  3  0  0  0  0  0  0
    4.3760   -7.2600    0.4080 C   0  0  0  0  0  3  0  0  0  0  0  0
    4.6970   -8.3940    1.1560 C   0  0  0  0  0  0  0  0  0  0  0  0
    5.9250   -8.4510    1.8110 C   0  0  0  0  0  3  0  0  0  0  0  0
    6.8530   -7.4150    1.6560 C   0  0  0  0  0  3  0  0  0  0  0  0
   10.7240   -2.3100   -0.7280 C   0  0  0  0  0  0  0  0  0  0  0  0
   10.4780   -1.7590    0.5400 C   0  0  0  0  0  3  0  0  0  0  0  0
    9.5570   -2.3200    1.4330 C   0  0  0  0  0  3  0  0  0  0  0  0
    8.8690   -3.4680    1.0190 C   0  0  0  0  0  0  0  0  0  0  0  0
    9.0820   -4.0380   -0.2330 C   0  0  0  0  0  0  0  0  0  0  0  0
   10.0130   -3.4640   -1.1130 C   0  0  0  0  0  3  0  0  0  0  0  0
    8.2910   -5.1440   -0.4070 N   0  0  0  0  0  0  0  0  0  0  0  0
    7.5640   -5.2550    0.6880 C   0  0  0  0  0  0  0  0  0  0  0  0
    7.9300   -4.2890    1.6130 N   0  0  0  0  0  0  0  0  0  0  0  0
    7.4510   -4.2020    2.9900 C   0  0  0  0  0  3  0  0  0  0  0  0
    8.1820   -3.1290    3.8160 C   0  0  0  0  0  2  0  0  0  0  0  0
    7.6840   -3.1040    5.2600 C   0  0  0  0  0  2  0  0  0  0  0  0
    6.1690   -2.9410    5.3310 C   0  0  0  0  0  2  0  0  0  0  0  0
    5.4480   -4.0210    4.5280 C   0  0  0  0  0  2  0  0  0  0  0  0
    5.9230   -4.0570    3.0760 C   0  0  0  0  0  2  0  0  0  0  0  0
   11.2710   -1.0500   -2.6720 O   0  0  0  0  0  0  0  0  0  0  0  0
   11.7330   -1.6740   -1.6640 C   0  0  0  0  0  0  0  0  0  0  0  0
   12.9630   -1.8090   -1.3740 O   0  0  0  0  0  1  0  0  0  0  0  0
    3.7270   -9.3570    1.1990 O   0  0  0  0  0  0  0  0  0  0  0  0
    2.6580   -9.1830    2.1360 C   0  0  0  0  0  2  0  0  0  0  0  0
    2.2640  -10.4980    2.8300 C   0  0  0  0  0  2  0  0  0  0  0  0
    3.4220  -11.3500    3.3180 C   0  0  0  0  0  0  0  0  0  0  0  0
    3.9230  -11.1370    4.6190 C   0  0  0  0  0  3  0  0  0  0  0  0
    5.0190  -11.8520    5.0970 C   0  0  0  0  0  3  0  0  0  0  0  0
    5.6230  -12.8130    4.2960 C   0  0  0  0  0  3  0  0  0  0  0  0
    5.1100  -13.0760    3.0270 C   0  0  0  0  0  3  0  0  0  0  0  0
    4.0020  -12.3670    2.5230 C   0  0  0  0  0  0  0  0  0  0  0  0
    3.4870  -12.7380    1.1980 C   0  0  0  0  0  0  0  0  0  0  0  0
    2.1800  -13.2150    1.0390 C   0  0  0  0  0  3  0  0  0  0  0  0
    1.6950  -13.5620   -0.2250 C   0  0  0  0  0  3  0  0  0  0  0  0
    2.5110  -13.4230   -1.3460 C   0  0  0  0  0  3  0  0  0  0  0  0
    3.8090  -12.9380   -1.2070 C   0  0  0  0  0  3  0  0  0  0  0  0
    4.2950  -12.5980    0.0580 C   0  0  0  0  0  3  0  0  0  0  0  0
  1  6  1  0  0  0  0
  2  3  1  0  0  0  0
  2  1  2  0  0  0  0
  3  4  2  0  0  0  0
  4 25  1  0  0  0  0
  4  5  1  0  0  0  0
  6  5  2  0  0  0  0
  7  8  1  0  0  0  0
  8  9  2  0  0  0  0
 10  9  1  0  0  0  0
 10 15  1  0  0  0  0
 11 10  2  0  0  0  0
 12  7  2  0  0  0  0
 12 11  1  0  0  0  0
 13 11  1  0  0  0  0
 13 14  2  0  0  0  0
 14  1  1  0  0  0  0
 14 15  1  0  0  0  0
 15 16  1  0  0  0  0
 16 21  1  0  0  0  0
 16 17  1  0  0  0  0
 17 18  1  0  0  0  0
 18 19  1  0  0  0  0
 20 19  1  0  0  0  0
 21 20  1  0  0  0  0
 22 23  2  0  0  0  0
 23 24  1  0  0  0  0
 23  7  1  0  0  0  0
 25 26  1  0  0  0  0
 26 27  1  0  0  0  0
 27 28  1  0  0  0  0
 28 29  1  0  0  0  0
 29 30  2  0  0  0  0
 31 30  1  0  0  0  0
 32 31  2  0  0  0  0
 33 32  1  0  0  0  0
 33 28  2  0  0  0  0
 34 33  1  0  0  0  0
 35 34  1  0  0  0  0
 36 35  2  0  0  0  0
 37 38  2  0  0  0  0
 37 36  1  0  0  0  0
 38 39  1  0  0  0  0
 39 34  2  0  0  0  0
M  END
>  <minimizedAffinity>
-8.88339615

$$$$

 OpenBabel09122221173D

 39 44  0  0  0  0  0  0  0  0999 V2000
    5.6090   -7.1540    0.8490 C   0  0  0  0  0  0  0  0  0  0  0  0
    5.3380   -6.5000   -0.3570 C   0  0  0  0  0  3  0  0  0  0  0  0
    6.3200   -5.7130   -0.9670 C   0  0  0  0  0  3  0  0  0  0  0  0
    7.5670   -5.5350   -0.3640 C   0  0  0  0  0  0  0  0  0  0  0  0
    7.8530   -6.2140    0.8190 C   0  0  0  0  0  3  0  0  0  0  0  0
    6.8720   -7.0030    1.4310 C   0  0  0  0  0  3  0  0  0  0  0  0
    1.6770  -11.0270    3.1730 C   0  0  0  0  0  0  0  0  0  0  0  0
    1.4750  -10.0240    4.1330 C   0  0  0  0  0  3  0  0  0  0  0  0
    2.1490   -8.7960    4.0850 C   0  0  0  0  0  3  0  0  0  0  0  0
    3.0510   -8.5930    3.0330 C   0  0  0  0  0  0  0  0  0  0  0  0
    3.2820   -9.5690    2.0660 C   0  0  0  0  0  0  0  0  0  0  0  0
    2.5940  -10.7900    2.1290 C   0  0  0  0  0  3  0  0  0  0  0  0
    4.2080   -9.1390    1.1510 N   0  0  0  0  0  0  0  0  0  0  0  0
    4.5870   -7.9390    1.5430 C   0  0  0  0  0  0  0  0  0  0  0  0
    3.8590   -7.5390    2.6540 N   0  0  0  0  0  0  0  0  0  0  0  0
    3.8980   -6.2130    3.2660 C   0  0  0  0  0  3  0  0  0  0  0  0
    4.4900   -6.2240    4.6870 C   0  0  0  0  0  2  0  0  0  0  0  0
    4.4690   -4.8280    5.3080 C   0  0  0  0  0  2  0  0  0  0  0  0
    5.1580   -3.8020    4.4130 C   0  0  0  0  0  2  0  0  0  0  0  0
    4.5530   -3.7810    3.0120 C   0  0  0  0  0  2  0  0  0  0  0  0
    4.5730   -5.1660    2.3670 C   0  0  0  0  0  2  0  0  0  0  0  0
    0.2590  -12.5560    4.3210 O   0  0  0  0  0  1  0  0  0  0  0  0
    0.9250  -12.3410    3.2580 C   0  0  0  0  0  0  0  0  0  0  0  0
    1.0120  -13.1290    2.2650 O   0  0  0  0  0  0  0  0  0  0  0  0
    8.4250   -4.7090   -1.0340 O   0  0  0  0  0  0  0  0  0  0  0  0
    9.4940   -4.1150   -0.2870 C   0  0  0  0  0  2  0  0  0  0  0  0
    9.2380   -2.6310    0.0280 C   0  0  0  0  0  2  0  0  0  0  0  0
    9.2050   -2.2730    1.5030 C   0  0  0  0  0  0  0  0  0  0  0  0
    8.9490   -3.2910    2.4440 C   0  0  0  0  0  3  0  0  0  0  0  0
    8.8520   -3.0090    3.8050 C   0  0  0  0  0  3  0  0  0  0  0  0
    9.0330   -1.7080    4.2580 C   0  0  0  0  0  3  0  0  0  0  0  0
    9.3400   -0.6970    3.3490 C   0  0  0  0  0  3  0  0  0  0  0  0
    9.4440   -0.9590    1.9690 C   0  0  0  0  0  0  0  0  0  0  0  0
    9.8210    0.1490    1.0820 C   0  0  0  0  0  0  0  0  0  0  0  0
    9.7470    1.4790    1.5150 C   0  0  0  0  0  3  0  0  0  0  0  0
   10.1130    2.5290    0.6680 C   0  0  0  0  0  3  0  0  0  0  0  0
   10.5700    2.2570   -0.6200 C   0  0  0  0  0  3  0  0  0  0  0  0
   10.6620    0.9400   -1.0630 C   0  0  0  0  0  3  0  0  0  0  0  0
   10.2890   -0.1080   -0.2170 C   0  0  0  0  0  3  0  0  0  0  0  0
  1  6  1  0  0  0  0
  1 14  1  0  0  0  0
  2  1  2  0  0  0  0
  3  4  2  0  0  0  0
  3  2  1  0  0  0  0
  4  5  1  0  0  0  0
  5  6  2  0  0  0  0
  7 23  1  0  0  0  0
  7  8  1  0  0  0  0
  9  8  2  0  0  0  0
 10  9  1  0  0  0  0
 11 12  1  0  0  0  0
 11 10  2  0  0  0  0
 12  7  2  0  0  0  0
 13 14  2  0  0  0  0
 13 11  1  0  0  0  0
 14 15  1  0  0  0  0
 15 10  1  0  0  0  0
 15 16  1  0  0  0  0
 16 17  1  0  0  0  0
 17 18  1  0  0  0  0
 19 18  1  0  0  0  0
 20 19  1  0  0  0  0
 21 20  1  0  0  0  0
 21 16  1  0  0  0  0
 23 22  1  0  0  0  0
 24 23  2  0  0  0  0
 25  4  1  0  0  0  0
 25 26  1  0  0  0  0
 26 27  1  0  0  0  0
 27 28  1  0  0  0  0
 28 33  2  0  0  0  0
 28 29  1  0  0  0  0
 29 30  2  0  0  0  0
 30 31  1  0  0  0  0
 32 31  2  0  0  0  0
 33 32  1  0  0  0  0
 34 35  1  0  0  0  0
 34 33  1  0  0  0  0
 36 35  2  0  0  0  0
 37 36  1  0  0  0  0
 38 37  2  0  0  0  0
 38 39  1  0  0  0  0
 39 34  2  0  0  0  0
M  END
>  <minimizedAffinity>
-8.78581619

$$$$

 OpenBabel09122221173D

 39 44  0  0  0  0  0  0  0  0999 V2000
    6.7570   -6.5880    1.0940 C   0  0  0  0  0  0  0  0  0  0  0  0
    7.1140   -7.6210    1.9660 C   0  0  0  0  0  3  0  0  0  0  0  0
    6.2270   -8.6750    2.2090 C   0  0  0  0  0  3  0  0  0  0  0  0
    4.9620   -8.6910    1.6190 C   0  0  0  0  0  0  0  0  0  0  0  0
    4.6170   -7.6830    0.7210 C   0  0  0  0  0  3  0  0  0  0  0  0
    5.5030   -6.6280    0.4760 C   0  0  0  0  0  3  0  0  0  0  0  0
   10.4450   -2.2130   -0.6730 C   0  0  0  0  0  0  0  0  0  0  0  0
   10.0920   -1.6190    0.5490 C   0  0  0  0  0  3  0  0  0  0  0  0
    9.2200   -2.2350    1.4560 C   0  0  0  0  0  3  0  0  0  0  0  0
    8.6960   -3.4860    1.1030 C   0  0  0  0  0  0  0  0  0  0  0  0
    9.0190   -4.1020   -0.1030 C   0  0  0  0  0  0  0  0  0  0  0  0
    9.8980   -3.4700   -0.9970 C   0  0  0  0  0  3  0  0  0  0  0  0
    8.3790   -5.3080   -0.2210 N   0  0  0  0  0  0  0  0  0  0  0  0
    7.6370   -5.4420    0.8610 C   0  0  0  0  0  0  0  0  0  0  0  0
    7.8490   -4.3800    1.7280 N   0  0  0  0  0  0  0  0  0  0  0  0
    7.3190   -4.2690    3.0850 C   0  0  0  0  0  3  0  0  0  0  0  0
    7.9820   -3.1450    3.9000 C   0  0  0  0  0  2  0  0  0  0  0  0
    7.4330   -3.0930    5.3240 C   0  0  0  0  0  2  0  0  0  0  0  0
    5.9110   -2.9840    5.3390 C   0  0  0  0  0  2  0  0  0  0  0  0
    5.2590   -4.1140    4.5470 C   0  0  0  0  0  2  0  0  0  0  0  0
    5.7850   -4.1780    3.1140 C   0  0  0  0  0  2  0  0  0  0  0  0
   10.8740   -0.8330   -2.5650 O   0  0  0  0  0  0  0  0  0  0  0  0
   11.3950   -1.5140   -1.6250 C   0  0  0  0  0  0  0  0  0  0  0  0
   12.6410   -1.6550   -1.4150 O   0  0  0  0  0  1  0  0  0  0  0  0
    4.1700   -9.7500    1.9690 O   0  0  0  0  0  0  0  0  0  0  0  0
    4.6570  -10.6380    2.9820 C   0  0  0  0  0  2  0  0  0  0  0  0
    4.5700  -12.1150    2.5600 C   0  0  0  0  0  2  0  0  0  0  0  0
    3.7000  -12.3980    1.3490 C   0  0  0  0  0  0  0  0  0  0  0  0
    4.3180  -12.5910    0.0970 C   0  0  0  0  0  3  0  0  0  0  0  0
    3.5650  -12.7980   -1.0570 C   0  0  0  0  0  3  0  0  0  0  0  0
    2.1790  -12.8410   -0.9820 C   0  0  0  0  0  3  0  0  0  0  0  0
    1.5500  -12.7060    0.2550 C   0  0  0  0  0  3  0  0  0  0  0  0
    2.2910  -12.4970    1.4350 C   0  0  0  0  0  0  0  0  0  0  0  0
    1.5590  -12.4160    2.7060 C   0  0  0  0  0  0  0  0  0  0  0  0
    1.6330  -13.4490    3.6490 C   0  0  0  0  0  3  0  0  0  0  0  0
    0.9380  -13.3640    4.8590 C   0  0  0  0  0  3  0  0  0  0  0  0
    0.1710  -12.2360    5.1430 C   0  0  0  0  0  3  0  0  0  0  0  0
    0.0970  -11.1940    4.2220 C   0  0  0  0  0  3  0  0  0  0  0  0
    0.7860  -11.2840    3.0100 C   0  0  0  0  0  3  0  0  0  0  0  0
  1  2  1  0  0  0  0
  2  3  2  0  0  0  0
  4 25  1  0  0  0  0
  4  3  1  0  0  0  0
  5  4  2  0  0  0  0
  6  5  1  0  0  0  0
  6  1  2  0  0  0  0
  7  8  1  0  0  0  0
  8  9  2  0  0  0  0
 10  9  1  0  0  0  0
 10 15  1  0  0  0  0
 11 10  2  0  0  0  0
 12  7  2  0  0  0  0
 12 11  1  0  0  0  0
 13 11  1  0  0  0  0
 13 14  2  0  0  0  0
 14  1  1  0  0  0  0
 14 15  1  0  0  0  0
 15 16  1  0  0  0  0
 16 21  1  0  0  0  0
 16 17  1  0  0  0  0
 17 18  1  0  0  0  0
 18 19  1  0  0  0  0
 20 19  1  0  0  0  0
 21 20  1  0  0  0  0
 22 23  2  0  0  0  0
 23 24  1  0  0  0  0
 23  7  1  0  0  0  0
 25 26  1  0  0  0  0
 27 26  1  0  0  0  0
 28 33  1  0  0  0  0
 28 27  1  0  0  0  0
 29 28  2  0  0  0  0
 30 31  2  0  0  0  0
 30 29  1  0  0  0  0
 31 32  1  0  0  0  0
 32 33  2  0  0  0  0
 33 34  1  0  0  0  0
 34 39  2  0  0  0  0
 34 35  1  0  0  0  0
 35 36  2  0  0  0  0
 36 37  1  0  0  0  0
 38 37  2  0  0  0  0
 39 38  1  0  0  0  0
M  END
>  <minimizedAffinity>
-8.70326424

$$$$
