
 OpenBabel09122222393D

 23 25  0  0  1  0  0  0  0  0999 V2000
    2.2790   -1.5850    8.0680 C   0  0  0  0  0  0  0  0  0  0  0  0
    1.8350   -1.0230    6.9210 N   0  0  0  0  0  0  0  0  0  0  0  0
    2.0070   -1.7020    5.7670 C   0  0  0  0  0  3  0  0  0  0  0  0
    2.5770   -2.9100    5.5800 N   0  0  0  0  0  0  0  0  0  0  0  0
    3.0090   -3.4210    6.7460 C   0  0  0  0  0  0  0  0  0  0  0  0
    2.9000   -2.8430    8.0020 C   0  0  0  0  0  0  0  0  0  0  0  0
    3.4470   -3.6640    8.9690 N   0  0  0  0  0  0  0  0  0  0  0  0
    3.8810   -4.7170    8.3080 C   0  0  0  0  0  3  0  0  0  0  0  0
    3.6410   -4.6150    6.9620 N   0  0  0  0  0  0  0  0  0  0  0  0
    4.0070   -5.6050    5.9730 C   0  0  2  0  0  3  0  0  0  0  0  0
    5.0080   -5.0480    5.0950 O   0  0  0  0  0  0  0  0  0  0  0  0
    4.7400   -5.5330    3.7530 C   0  0  1  0  0  3  0  0  0  0  0  0
    3.6140   -6.5440    3.8670 C   0  0  1  0  0  3  0  0  0  0  0  0
    4.1560   -7.7690    4.1580 F   0  0  0  0  0  0  0  0  0  0  0  0
    2.8540   -6.0930    5.0950 C   0  0  1  0  0  3  0  0  0  0  0  0
    2.1090   -7.1610    5.6810 O   0  0  0  0  0  0  0  0  0  0  0  0
    2.6010   -7.9890    5.5150 H   0  0  0  0  0  0  0  0  0  0  0  0
    4.3730   -4.3410    2.8690 C   0  0  0  0  0  2  0  0  0  0  0  0
    4.6810   -3.1260    3.5460 O   0  0  0  0  0  0  0  0  0  0  0  0
    4.2350   -3.1820    4.4150 H   0  0  0  0  0  0  0  0  0  0  0  0
    2.1030   -0.8940    9.2460 N   0  0  0  0  0  0  0  0  0  0  0  0
    2.4350   -1.3020   10.1080 H   0  0  0  0  0  0  0  0  0  0  0  0
    1.6530    0.0050    9.2100 H   0  0  0  0  0  0  0  0  0  0  0  0
  1 21  1  0  0  0  0
  2  1  2  0  0  0  0
  3  2  1  0  0  0  0
  4  3  2  0  0  0  0
  4  5  1  0  0  0  0
  5  9  1  0  0  0  0
  5  6  2  0  0  0  0
  6  1  1  0  0  0  0
  6  7  1  0  0  0  0
  8  7  2  0  0  0  0
  9  8  1  0  0  0  0
 10  9  1  1  0  0  0
 11 10  1  0  0  0  0
 12 18  1  6  0  0  0
 12 13  1  0  0  0  0
 12 11  1  0  0  0  0
 13 14  1  1  0  0  0
 13 15  1  0  0  0  0
 15 16  1  1  0  0  0
 15 10  1  0  0  0  0
 17 16  1  0  0  0  0
 18 19  1  0  0  0  0
 19 20  1  0  0  0  0
 21 22  1  0  0  0  0
 23 21  1  0  0  0  0
M  END
>  <minimizedAffinity>
-5.05990028

$$$$
