
 OpenBabel09122222393D

 23 25  0  0  1  0  0  0  0  0999 V2000
    4.3040   -8.2020    0.6020 C   0  0  0  0  0  0  0  0  0  0  0  0
    4.6740   -7.2720   -0.3090 N   0  0  0  0  0  0  0  0  0  0  0  0
    4.9260   -6.0180    0.1220 C   0  0  0  0  0  3  0  0  0  0  0  0
    4.8650   -5.5340    1.3800 N   0  0  0  0  0  0  0  0  0  0  0  0
    4.4860   -6.4920    2.2440 C   0  0  0  0  0  0  0  0  0  0  0  0
    4.1970   -7.8160    1.9480 C   0  0  0  0  0  0  0  0  0  0  0  0
    3.8530   -8.5100    3.0910 N   0  0  0  0  0  0  0  0  0  0  0  0
    3.9290   -7.6210    4.0590 C   0  0  0  0  0  3  0  0  0  0  0  0
    4.3050   -6.3860    3.5950 N   0  0  0  0  0  0  0  0  0  0  0  0
    4.4680   -5.2030    4.4120 C   0  0  2  0  0  3  0  0  0  0  0  0
    4.5150   -5.5930    5.8010 O   0  0  0  0  0  0  0  0  0  0  0  0
    3.8120   -4.5800    6.5690 C   0  0  1  0  0  3  0  0  0  0  0  0
    3.4600   -3.4620    5.6050 C   0  0  1  0  0  3  0  0  0  0  0  0
    4.5260   -2.6040    5.5240 F   0  0  0  0  0  0  0  0  0  0  0  0
    3.3560   -4.1650    4.2690 C   0  0  1  0  0  3  0  0  0  0  0  0
    3.5580   -3.2660    3.1790 O   0  0  0  0  0  0  0  0  0  0  0  0
    4.1810   -2.5740    3.4780 H   0  0  0  0  0  0  0  0  0  0  0  0
    2.5770   -5.2200    7.2040 C   0  0  0  0  0  2  0  0  0  0  0  0
    2.7420   -6.6340    7.2560 O   0  0  0  0  0  0  0  0  0  0  0  0
    2.9620   -6.9130    6.3450 H   0  0  0  0  0  0  0  0  0  0  0  0
    4.0480   -9.4810    0.1630 N   0  0  0  0  0  0  0  0  0  0  0  0
    3.7670  -10.1820    0.8340 H   0  0  0  0  0  0  0  0  0  0  0  0
    4.1420   -9.6780   -0.8190 H   0  0  0  0  0  0  0  0  0  0  0  0
  1  6  1  0  0  0  0
  2  3  1  0  0  0  0
  2  1  2  0  0  0  0
  3  4  2  0  0  0  0
  4  5  1  0  0  0  0
  5  9  1  0  0  0  0
  6  5  2  0  0  0  0
  6  7  1  0  0  0  0
  7  8  2  0  0  0  0
  9  8  1  0  0  0  0
 10  9  1  6  0  0  0
 10 11  1  0  0  0  0
 11 12  1  0  0  0  0
 12 18  1  6  0  0  0
 13 14  1  6  0  0  0
 13 12  1  0  0  0  0
 15 16  1  6  0  0  0
 15 10  1  0  0  0  0
 15 13  1  0  0  0  0
 16 17  1  0  0  0  0
 18 19  1  0  0  0  0
 20 19  1  0  0  0  0
 21  1  1  0  0  0  0
 21 22  1  0  0  0  0
 23 21  1  0  0  0  0
M  END
>  <minimizedAffinity>
-6.0158782

$$$$
