
 OpenBabel09122222393D

 23 25  0  0  1  0  0  0  0  0999 V2000
    2.5080   -2.3840    6.5020 C   0  0  0  0  0  0  0  0  0  0  0  0
    2.7130   -3.0490    7.6610 N   0  0  0  0  0  0  0  0  0  0  0  0
    3.4000   -4.2100    7.6210 C   0  0  0  0  0  3  0  0  0  0  0  0
    3.9390   -4.8300    6.5510 N   0  0  0  0  0  0  0  0  0  0  0  0
    3.7010   -4.1360    5.4250 C   0  0  0  0  0  0  0  0  0  0  0  0
    3.0160   -2.9360    5.3140 C   0  0  0  0  0  0  0  0  0  0  0  0
    2.9770   -2.5130    4.0000 N   0  0  0  0  0  0  0  0  0  0  0  0
    3.6250   -3.4430    3.3290 C   0  0  0  0  0  3  0  0  0  0  0  0
    4.0780   -4.4460    4.1470 N   0  0  0  0  0  0  0  0  0  0  0  0
    4.8150   -5.6100    3.7080 C   0  0  2  0  0  3  0  0  0  0  0  0
    5.3850   -5.3450    2.4090 O   0  0  0  0  0  0  0  0  0  0  0  0
    5.3070   -6.5700    1.6330 C   0  0  1  0  0  3  0  0  0  0  0  0
    4.8020   -7.6530    2.5680 C   0  0  1  0  0  3  0  0  0  0  0  0
    5.8730   -8.1890    3.2330 F   0  0  0  0  0  0  0  0  0  0  0  0
    3.9860   -6.8890    3.5880 C   0  0  1  0  0  3  0  0  0  0  0  0
    3.8670   -7.6040    4.8170 O   0  0  0  0  0  0  0  0  0  0  0  0
    4.6830   -8.1310    4.9310 H   0  0  0  0  0  0  0  0  0  0  0  0
    4.3730   -6.3350    0.4450 C   0  0  0  0  0  2  0  0  0  0  0  0
    4.3180   -7.5080   -0.3620 O   0  0  0  0  0  0  0  0  0  0  0  0
    5.2460   -7.7340   -0.5720 H   0  0  0  0  0  0  0  0  0  0  0  0
    1.8080   -1.1990    6.5420 N   0  0  0  0  0  0  0  0  0  0  0  0
    1.6450   -0.6970    5.6810 H   0  0  0  0  0  0  0  0  0  0  0  0
    1.4730   -0.8720    7.4320 H   0  0  0  0  0  0  0  0  0  0  0  0
  1 21  1  0  0  0  0
  1  2  1  0  0  0  0
  3  2  2  0  0  0  0
  4  3  1  0  0  0  0
  5  4  2  0  0  0  0
  6  5  1  0  0  0  0
  6  1  2  0  0  0  0
  7  6  1  0  0  0  0
  8  7  2  0  0  0  0
  8  9  1  0  0  0  0
  9  5  1  0  0  0  0
 10  9  1  6  0  0  0
 11 10  1  0  0  0  0
 12 18  1  6  0  0  0
 12 11  1  0  0  0  0
 12 13  1  0  0  0  0
 13 14  1  1  0  0  0
 13 15  1  0  0  0  0
 15 10  1  0  0  0  0
 15 16  1  1  0  0  0
 16 17  1  0  0  0  0
 19 18  1  0  0  0  0
 20 19  1  0  0  0  0
 21 23  1  0  0  0  0
 22 21  1  0  0  0  0
M  END
>  <minimizedAffinity>
-5.30314827

$$$$
