
 OpenBabel09122222393D

 23 25  0  0  1  0  0  0  0  0999 V2000
    3.0960   -3.3020    6.0210 C   0  0  0  0  0  0  0  0  0  0  0  0
    2.9860   -4.0900    7.1140 N   0  0  0  0  0  0  0  0  0  0  0  0
    3.4100   -5.3690    7.0270 C   0  0  0  0  0  3  0  0  0  0  0  0
    3.9530   -6.0030    5.9680 N   0  0  0  0  0  0  0  0  0  0  0  0
    4.0330   -5.1820    4.9070 C   0  0  0  0  0  0  0  0  0  0  0  0
    3.6410   -3.8530    4.8490 C   0  0  0  0  0  0  0  0  0  0  0  0
    3.8830   -3.3240    3.5960 N   0  0  0  0  0  0  0  0  0  0  0  0
    4.4090   -4.3180    2.9090 C   0  0  0  0  0  3  0  0  0  0  0  0
    4.5160   -5.4610    3.6580 N   0  0  0  0  0  0  0  0  0  0  0  0
    5.0450   -6.7210    3.1840 C   0  0  2  0  0  3  0  0  0  0  0  0
    5.8710   -6.4790    2.0260 O   0  0  0  0  0  0  0  0  0  0  0  0
    5.6610   -7.5750    1.0950 C   0  0  1  0  0  3  0  0  0  0  0  0
    4.7790   -8.5890    1.8000 C   0  0  1  0  0  3  0  0  0  0  0  0
    5.5790   -9.4220    2.5390 F   0  0  0  0  0  0  0  0  0  0  0  0
    3.9890   -7.7510    2.7810 C   0  0  1  0  0  3  0  0  0  0  0  0
    3.5090   -8.5280    3.8780 O   0  0  0  0  0  0  0  0  0  0  0  0
    4.1590   -9.2410    4.0410 H   0  0  0  0  0  0  0  0  0  0  0  0
    5.0170   -7.0170   -0.1750 C   0  0  0  0  0  2  0  0  0  0  0  0
    5.2910   -7.8830   -1.2730 O   0  0  0  0  0  0  0  0  0  0  0  0
    6.2620   -7.9980   -1.2870 H   0  0  0  0  0  0  0  0  0  0  0  0
    2.6660   -1.9970    6.1080 N   0  0  0  0  0  0  0  0  0  0  0  0
    2.7390   -1.4010    5.2960 H   0  0  0  0  0  0  0  0  0  0  0  0
    2.2820   -1.6780    6.9820 H   0  0  0  0  0  0  0  0  0  0  0  0
  1 21  1  0  0  0  0
  1  2  1  0  0  0  0
  3  2  2  0  0  0  0
  4  3  1  0  0  0  0
  5  4  2  0  0  0  0
  6  5  1  0  0  0  0
  6  1  2  0  0  0  0
  7  6  1  0  0  0  0
  8  7  2  0  0  0  0
  8  9  1  0  0  0  0
  9  5  1  0  0  0  0
 10  9  1  6  0  0  0
 11 10  1  0  0  0  0
 12 18  1  6  0  0  0
 12 13  1  0  0  0  0
 12 11  1  0  0  0  0
 13 14  1  1  0  0  0
 13 15  1  0  0  0  0
 15 10  1  0  0  0  0
 15 16  1  1  0  0  0
 16 17  1  0  0  0  0
 19 18  1  0  0  0  0
 20 19  1  0  0  0  0
 21 23  1  0  0  0  0
 22 21  1  0  0  0  0
M  END
>  <minimizedAffinity>
-5.84468222

$$$$
