
 OpenBabel09122222393D

 23 25  0  0  1  0  0  0  0  0999 V2000
    2.1630   -2.2150    8.8140 C   0  0  0  0  0  0  0  0  0  0  0  0
    1.6570   -3.1580    9.6410 N   0  0  0  0  0  0  0  0  0  0  0  0
    1.8300   -4.4560    9.3140 C   0  0  0  0  0  3  0  0  0  0  0  0
    2.4630   -4.9750    8.2420 N   0  0  0  0  0  0  0  0  0  0  0  0
    2.9390   -4.0000    7.4490 C   0  0  0  0  0  0  0  0  0  0  0  0
    2.8390   -2.6330    7.6550 C   0  0  0  0  0  0  0  0  0  0  0  0
    3.4560   -1.9350    6.6350 N   0  0  0  0  0  0  0  0  0  0  0  0
    3.9170   -2.8650    5.8250 C   0  0  0  0  0  3  0  0  0  0  0  0
    3.6270   -4.1290    6.2730 N   0  0  0  0  0  0  0  0  0  0  0  0
    3.9910   -5.3560    5.6000 C   0  0  2  0  0  3  0  0  0  0  0  0
    5.0790   -5.0890    4.6890 O   0  0  0  0  0  0  0  0  0  0  0  0
    4.8660   -5.8920    3.4980 C   0  0  1  0  0  3  0  0  0  0  0  0
    3.6740   -6.7880    3.7780 C   0  0  1  0  0  3  0  0  0  0  0  0
    4.1190   -7.9190    4.4120 F   0  0  0  0  0  0  0  0  0  0  0  0
    2.8680   -6.0030    4.7890 C   0  0  1  0  0  3  0  0  0  0  0  0
    2.0220   -6.8480    5.5680 O   0  0  0  0  0  0  0  0  0  0  0  0
    2.4710   -7.7120    5.6570 H   0  0  0  0  0  0  0  0  0  0  0  0
    4.6300   -4.9540    2.3140 C   0  0  0  0  0  2  0  0  0  0  0  0
    4.7500   -5.6790    1.0940 O   0  0  0  0  0  0  0  0  0  0  0  0
    5.6180   -6.1280    1.1320 H   0  0  0  0  0  0  0  0  0  0  0  0
    1.9880   -0.8910    9.1470 N   0  0  0  0  0  0  0  0  0  0  0  0
    2.3570   -0.1790    8.5340 H   0  0  0  0  0  0  0  0  0  0  0  0
    1.4880   -0.6730    9.9920 H   0  0  0  0  0  0  0  0  0  0  0  0
  1 21  1  0  0  0  0
  1  2  1  0  0  0  0
  3  2  2  0  0  0  0
  4  3  1  0  0  0  0
  5  6  1  0  0  0  0
  5  4  2  0  0  0  0
  6  1  2  0  0  0  0
  7  6  1  0  0  0  0
  8  9  1  0  0  0  0
  8  7  2  0  0  0  0
  9  5  1  0  0  0  0
 10  9  1  6  0  0  0
 11 10  1  0  0  0  0
 12 18  1  6  0  0  0
 12 13  1  0  0  0  0
 12 11  1  0  0  0  0
 13 14  1  1  0  0  0
 13 15  1  0  0  0  0
 15 16  1  1  0  0  0
 15 10  1  0  0  0  0
 16 17  1  0  0  0  0
 19 20  1  0  0  0  0
 19 18  1  0  0  0  0
 21 23  1  0  0  0  0
 22 21  1  0  0  0  0
M  END
>  <minimizedAffinity>
-5.02877474

$$$$
