
 OpenBabel09122222393D

 23 25  0  0  1  0  0  0  0  0999 V2000
    5.0000   -7.9470    1.3360 C   0  0  0  0  0  0  0  0  0  0  0  0
    4.3640   -9.0510    1.7900 N   0  0  0  0  0  0  0  0  0  0  0  0
    3.7490   -8.9880    2.9900 C   0  0  0  0  0  3  0  0  0  0  0  0
    3.6680   -7.9420    3.8380 N   0  0  0  0  0  0  0  0  0  0  0  0
    4.3200   -6.8750    3.3460 C   0  0  0  0  0  0  0  0  0  0  0  0
    4.9910   -6.7920    2.1350 C   0  0  0  0  0  0  0  0  0  0  0  0
    5.5330   -5.5340    1.9590 N   0  0  0  0  0  0  0  0  0  0  0  0
    5.1980   -4.8700    3.0460 C   0  0  0  0  0  3  0  0  0  0  0  0
    4.4660   -5.6390    3.9140 N   0  0  0  0  0  0  0  0  0  0  0  0
    3.9600   -5.1970    5.1950 C   0  0  2  0  0  3  0  0  0  0  0  0
    2.6020   -4.7360    5.0310 O   0  0  0  0  0  0  0  0  0  0  0  0
    2.4180   -3.5840    5.8960 C   0  0  1  0  0  3  0  0  0  0  0  0
    3.6840   -3.4470    6.7220 C   0  0  1  0  0  3  0  0  0  0  0  0
    3.5700   -4.2460    7.8290 F   0  0  0  0  0  0  0  0  0  0  0  0
    4.7510   -4.0600    5.8420 C   0  0  1  0  0  3  0  0  0  0  0  0
    5.8720   -4.5110    6.6010 O   0  0  0  0  0  0  0  0  0  0  0  0
    5.5400   -4.7940    7.4770 H   0  0  0  0  0  0  0  0  0  0  0  0
    2.1500   -2.3570    5.0230 C   0  0  0  0  0  2  0  0  0  0  0  0
    2.5820   -2.6120    3.6890 O   0  0  0  0  0  0  0  0  0  0  0  0
    3.5120   -2.9060    3.7600 H   0  0  0  0  0  0  0  0  0  0  0  0
    5.6260   -8.0100    0.1120 N   0  0  0  0  0  0  0  0  0  0  0  0
    6.1070   -7.1930   -0.2350 H   0  0  0  0  0  0  0  0  0  0  0  0
    5.5910   -8.8760   -0.4000 H   0  0  0  0  0  0  0  0  0  0  0  0
  1  2  2  0  0  0  0
  1  6  1  0  0  0  0
  2  3  1  0  0  0  0
  3  4  2  0  0  0  0
  5  4  1  0  0  0  0
  5  9  1  0  0  0  0
  6  5  2  0  0  0  0
  7  6  1  0  0  0  0
  7  8  2  0  0  0  0
  8  9  1  0  0  0  0
 10  9  1  6  0  0  0
 10 15  1  0  0  0  0
 11 10  1  0  0  0  0
 11 12  1  0  0  0  0
 12 18  1  6  0  0  0
 12 13  1  0  0  0  0
 13 14  1  1  0  0  0
 15 16  1  1  0  0  0
 15 13  1  0  0  0  0
 16 17  1  0  0  0  0
 19 20  1  0  0  0  0
 19 18  1  0  0  0  0
 21  1  1  0  0  0  0
 22 21  1  0  0  0  0
 23 21  1  0  0  0  0
M  END
>  <minimizedAffinity>
-5.12793827

$$$$
