
 OpenBabel09122222393D

 23 25  0  0  1  0  0  0  0  0999 V2000
    4.4130   -8.3820    1.0810 C   0  0  0  0  0  0  0  0  0  0  0  0
    3.5570   -9.0290    1.9050 N   0  0  0  0  0  0  0  0  0  0  0  0
    3.2210   -8.4390    3.0710 C   0  0  0  0  0  3  0  0  0  0  0  0
    3.6260   -7.2480    3.5570 N   0  0  0  0  0  0  0  0  0  0  0  0
    4.4800   -6.6500    2.7080 C   0  0  0  0  0  0  0  0  0  0  0  0
    4.9120   -7.1320    1.4820 C   0  0  0  0  0  0  0  0  0  0  0  0
    5.7790   -6.2400    0.8820 N   0  0  0  0  0  0  0  0  0  0  0  0
    5.8720   -5.2390    1.7330 C   0  0  0  0  0  3  0  0  0  0  0  0
    5.1060   -5.4430    2.8520 N   0  0  0  0  0  0  0  0  0  0  0  0
    5.0040   -4.5290    3.9690 C   0  0  2  0  0  3  0  0  0  0  0  0
    5.1610   -5.2690    5.1990 O   0  0  0  0  0  0  0  0  0  0  0  0
    4.2550   -4.6960    6.1790 C   0  0  1  0  0  3  0  0  0  0  0  0
    3.6400   -3.4630    5.5420 C   0  0  1  0  0  3  0  0  0  0  0  0
    4.4770   -2.3990    5.7530 F   0  0  0  0  0  0  0  0  0  0  0  0
    3.6800   -3.7700    4.0610 C   0  0  1  0  0  3  0  0  0  0  0  0
    3.6530   -2.5820    3.2710 O   0  0  0  0  0  0  0  0  0  0  0  0
    4.1040   -1.8800    3.7790 H   0  0  0  0  0  0  0  0  0  0  0  0
    3.2110   -5.7490    6.5510 C   0  0  0  0  0  2  0  0  0  0  0  0
    3.8030   -7.0450    6.5210 O   0  0  0  0  0  0  0  0  0  0  0  0
    4.2170   -7.1300    5.6390 H   0  0  0  0  0  0  0  0  0  0  0  0
    4.7550   -8.9820   -0.1090 N   0  0  0  0  0  0  0  0  0  0  0  0
    5.3970   -8.5100   -0.7300 H   0  0  0  0  0  0  0  0  0  0  0  0
    4.3580   -9.8820   -0.3230 H   0  0  0  0  0  0  0  0  0  0  0  0
  1  6  2  0  0  0  0
  1  2  1  0  0  0  0
  2  3  2  0  0  0  0
  3  4  1  0  0  0  0
  5  9  1  0  0  0  0
  5  4  2  0  0  0  0
  6  5  1  0  0  0  0
  7  6  1  0  0  0  0
  7  8  2  0  0  0  0
  8  9  1  0  0  0  0
 10  9  1  6  0  0  0
 10 15  1  0  0  0  0
 10 11  1  0  0  0  0
 11 12  1  0  0  0  0
 12 18  1  6  0  0  0
 13 14  1  6  0  0  0
 13 12  1  0  0  0  0
 15 16  1  6  0  0  0
 15 13  1  0  0  0  0
 16 17  1  0  0  0  0
 19 18  1  0  0  0  0
 20 19  1  0  0  0  0
 21  1  1  0  0  0  0
 22 21  1  0  0  0  0
 23 21  1  0  0  0  0
M  END
>  <minimizedAffinity>
-5.9088707

$$$$
