
 OpenBabel09122221543D

 23 25  0  0  1  0  0  0  0  0999 V2000
    4.3040   -8.2020    0.6020 C   0  0  0  0  0  0  0  0  0  0  0  0
    4.6740   -7.2720   -0.3090 N   0  0  0  0  0  0  0  0  0  0  0  0
    4.9260   -6.0180    0.1220 C   0  0  0  0  0  3  0  0  0  0  0  0
    4.8650   -5.5340    1.3800 N   0  0  0  0  0  0  0  0  0  0  0  0
    4.4860   -6.4920    2.2440 C   0  0  0  0  0  0  0  0  0  0  0  0
    4.1970   -7.8160    1.9480 C   0  0  0  0  0  0  0  0  0  0  0  0
    3.8530   -8.5100    3.0910 N   0  0  0  0  0  0  0  0  0  0  0  0
    3.9290   -7.6210    4.0590 C   0  0  0  0  0  3  0  0  0  0  0  0
    4.3050   -6.3860    3.5950 N   0  0  0  0  0  0  0  0  0  0  0  0
    4.4680   -5.2030    4.4120 C   0  0  2  0  0  3  0  0  0  0  0  0
    4.5150   -5.5930    5.8010 O   0  0  0  0  0  0  0  0  0  0  0  0
    3.8120   -4.5800    6.5690 C   0  0  1  0  0  3  0  0  0  0  0  0
    3.4600   -3.4620    5.6050 C   0  0  1  0  0  3  0  0  0  0  0  0
    4.5260   -2.6040    5.5240 F   0  0  0  0  0  0  0  0  0  0  0  0
    3.3560   -4.1650    4.2690 C   0  0  1  0  0  3  0  0  0  0  0  0
    3.5580   -3.2660    3.1790 O   0  0  0  0  0  0  0  0  0  0  0  0
    4.1810   -2.5740    3.4780 H   0  0  0  0  0  0  0  0  0  0  0  0
    2.5770   -5.2200    7.2040 C   0  0  0  0  0  2  0  0  0  0  0  0
    2.7420   -6.6340    7.2560 O   0  0  0  0  0  0  0  0  0  0  0  0
    2.9620   -6.9130    6.3450 H   0  0  0  0  0  0  0  0  0  0  0  0
    4.0480   -9.4810    0.1630 N   0  0  0  0  0  0  0  0  0  0  0  0
    3.7670  -10.1820    0.8340 H   0  0  0  0  0  0  0  0  0  0  0  0
    4.1420   -9.6780   -0.8190 H   0  0  0  0  0  0  0  0  0  0  0  0
  1  6  1  0  0  0  0
  2  3  1  0  0  0  0
  2  1  2  0  0  0  0
  3  4  2  0  0  0  0
  4  5  1  0  0  0  0
  5  9  1  0  0  0  0
  6  5  2  0  0  0  0
  6  7  1  0  0  0  0
  7  8  2  0  0  0  0
  9  8  1  0  0  0  0
 10  9  1  6  0  0  0
 10 11  1  0  0  0  0
 11 12  1  0  0  0  0
 12 18  1  6  0  0  0
 13 14  1  6  0  0  0
 13 12  1  0  0  0  0
 15 16  1  6  0  0  0
 15 10  1  0  0  0  0
 15 13  1  0  0  0  0
 16 17  1  0  0  0  0
 18 19  1  0  0  0  0
 20 19  1  0  0  0  0
 21  1  1  0  0  0  0
 21 22  1  0  0  0  0
 23 21  1  0  0  0  0
M  END
>  <minimizedAffinity>
-6.0158782

$$$$

 OpenBabel09122221543D

 23 25  0  0  1  0  0  0  0  0999 V2000
    4.4130   -8.3820    1.0810 C   0  0  0  0  0  0  0  0  0  0  0  0
    3.5570   -9.0290    1.9050 N   0  0  0  0  0  0  0  0  0  0  0  0
    3.2210   -8.4390    3.0710 C   0  0  0  0  0  3  0  0  0  0  0  0
    3.6260   -7.2480    3.5570 N   0  0  0  0  0  0  0  0  0  0  0  0
    4.4800   -6.6500    2.7080 C   0  0  0  0  0  0  0  0  0  0  0  0
    4.9120   -7.1320    1.4820 C   0  0  0  0  0  0  0  0  0  0  0  0
    5.7790   -6.2400    0.8820 N   0  0  0  0  0  0  0  0  0  0  0  0
    5.8720   -5.2390    1.7330 C   0  0  0  0  0  3  0  0  0  0  0  0
    5.1060   -5.4430    2.8520 N   0  0  0  0  0  0  0  0  0  0  0  0
    5.0040   -4.5290    3.9690 C   0  0  2  0  0  3  0  0  0  0  0  0
    5.1610   -5.2690    5.1990 O   0  0  0  0  0  0  0  0  0  0  0  0
    4.2550   -4.6960    6.1790 C   0  0  1  0  0  3  0  0  0  0  0  0
    3.6400   -3.4630    5.5420 C   0  0  1  0  0  3  0  0  0  0  0  0
    4.4770   -2.3990    5.7530 F   0  0  0  0  0  0  0  0  0  0  0  0
    3.6800   -3.7700    4.0610 C   0  0  1  0  0  3  0  0  0  0  0  0
    3.6530   -2.5820    3.2710 O   0  0  0  0  0  0  0  0  0  0  0  0
    4.1040   -1.8800    3.7790 H   0  0  0  0  0  0  0  0  0  0  0  0
    3.2110   -5.7490    6.5510 C   0  0  0  0  0  2  0  0  0  0  0  0
    3.8030   -7.0450    6.5210 O   0  0  0  0  0  0  0  0  0  0  0  0
    4.2170   -7.1300    5.6390 H   0  0  0  0  0  0  0  0  0  0  0  0
    4.7550   -8.9820   -0.1090 N   0  0  0  0  0  0  0  0  0  0  0  0
    5.3970   -8.5100   -0.7300 H   0  0  0  0  0  0  0  0  0  0  0  0
    4.3580   -9.8820   -0.3230 H   0  0  0  0  0  0  0  0  0  0  0  0
  1  6  2  0  0  0  0
  1  2  1  0  0  0  0
  2  3  2  0  0  0  0
  3  4  1  0  0  0  0
  5  9  1  0  0  0  0
  5  4  2  0  0  0  0
  6  5  1  0  0  0  0
  7  6  1  0  0  0  0
  7  8  2  0  0  0  0
  8  9  1  0  0  0  0
 10  9  1  6  0  0  0
 10 15  1  0  0  0  0
 10 11  1  0  0  0  0
 11 12  1  0  0  0  0
 12 18  1  6  0  0  0
 13 14  1  6  0  0  0
 13 12  1  0  0  0  0
 15 16  1  6  0  0  0
 15 13  1  0  0  0  0
 16 17  1  0  0  0  0
 19 18  1  0  0  0  0
 20 19  1  0  0  0  0
 21  1  1  0  0  0  0
 22 21  1  0  0  0  0
 23 21  1  0  0  0  0
M  END
>  <minimizedAffinity>
-5.9088707

$$$$

 OpenBabel09122221543D

 23 25  0  0  1  0  0  0  0  0999 V2000
    3.0960   -3.3020    6.0210 C   0  0  0  0  0  0  0  0  0  0  0  0
    2.9860   -4.0900    7.1140 N   0  0  0  0  0  0  0  0  0  0  0  0
    3.4100   -5.3690    7.0270 C   0  0  0  0  0  3  0  0  0  0  0  0
    3.9530   -6.0030    5.9680 N   0  0  0  0  0  0  0  0  0  0  0  0
    4.0330   -5.1820    4.9070 C   0  0  0  0  0  0  0  0  0  0  0  0
    3.6410   -3.8530    4.8490 C   0  0  0  0  0  0  0  0  0  0  0  0
    3.8830   -3.3240    3.5960 N   0  0  0  0  0  0  0  0  0  0  0  0
    4.4090   -4.3180    2.9090 C   0  0  0  0  0  3  0  0  0  0  0  0
    4.5160   -5.4610    3.6580 N   0  0  0  0  0  0  0  0  0  0  0  0
    5.0450   -6.7210    3.1840 C   0  0  2  0  0  3  0  0  0  0  0  0
    5.8710   -6.4790    2.0260 O   0  0  0  0  0  0  0  0  0  0  0  0
    5.6610   -7.5750    1.0950 C   0  0  1  0  0  3  0  0  0  0  0  0
    4.7790   -8.5890    1.8000 C   0  0  1  0  0  3  0  0  0  0  0  0
    5.5790   -9.4220    2.5390 F   0  0  0  0  0  0  0  0  0  0  0  0
    3.9890   -7.7510    2.7810 C   0  0  1  0  0  3  0  0  0  0  0  0
    3.5090   -8.5280    3.8780 O   0  0  0  0  0  0  0  0  0  0  0  0
    4.1590   -9.2410    4.0410 H   0  0  0  0  0  0  0  0  0  0  0  0
    5.0170   -7.0170   -0.1750 C   0  0  0  0  0  2  0  0  0  0  0  0
    5.2910   -7.8830   -1.2730 O   0  0  0  0  0  0  0  0  0  0  0  0
    6.2620   -7.9980   -1.2870 H   0  0  0  0  0  0  0  0  0  0  0  0
    2.6660   -1.9970    6.1080 N   0  0  0  0  0  0  0  0  0  0  0  0
    2.7390   -1.4010    5.2960 H   0  0  0  0  0  0  0  0  0  0  0  0
    2.2820   -1.6780    6.9820 H   0  0  0  0  0  0  0  0  0  0  0  0
  1 21  1  0  0  0  0
  1  2  1  0  0  0  0
  3  2  2  0  0  0  0
  4  3  1  0  0  0  0
  5  4  2  0  0  0  0
  6  5  1  0  0  0  0
  6  1  2  0  0  0  0
  7  6  1  0  0  0  0
  8  7  2  0  0  0  0
  8  9  1  0  0  0  0
  9  5  1  0  0  0  0
 10  9  1  6  0  0  0
 11 10  1  0  0  0  0
 12 18  1  6  0  0  0
 12 13  1  0  0  0  0
 12 11  1  0  0  0  0
 13 14  1  1  0  0  0
 13 15  1  0  0  0  0
 15 10  1  0  0  0  0
 15 16  1  1  0  0  0
 16 17  1  0  0  0  0
 19 18  1  0  0  0  0
 20 19  1  0  0  0  0
 21 23  1  0  0  0  0
 22 21  1  0  0  0  0
M  END
>  <minimizedAffinity>
-5.84468222

$$$$

 OpenBabel09122221543D

 23 25  0  0  1  0  0  0  0  0999 V2000
    2.5080   -2.3840    6.5020 C   0  0  0  0  0  0  0  0  0  0  0  0
    2.7130   -3.0490    7.6610 N   0  0  0  0  0  0  0  0  0  0  0  0
    3.4000   -4.2100    7.6210 C   0  0  0  0  0  3  0  0  0  0  0  0
    3.9390   -4.8300    6.5510 N   0  0  0  0  0  0  0  0  0  0  0  0
    3.7010   -4.1360    5.4250 C   0  0  0  0  0  0  0  0  0  0  0  0
    3.0160   -2.9360    5.3140 C   0  0  0  0  0  0  0  0  0  0  0  0
    2.9770   -2.5130    4.0000 N   0  0  0  0  0  0  0  0  0  0  0  0
    3.6250   -3.4430    3.3290 C   0  0  0  0  0  3  0  0  0  0  0  0
    4.0780   -4.4460    4.1470 N   0  0  0  0  0  0  0  0  0  0  0  0
    4.8150   -5.6100    3.7080 C   0  0  2  0  0  3  0  0  0  0  0  0
    5.3850   -5.3450    2.4090 O   0  0  0  0  0  0  0  0  0  0  0  0
    5.3070   -6.5700    1.6330 C   0  0  1  0  0  3  0  0  0  0  0  0
    4.8020   -7.6530    2.5680 C   0  0  1  0  0  3  0  0  0  0  0  0
    5.8730   -8.1890    3.2330 F   0  0  0  0  0  0  0  0  0  0  0  0
    3.9860   -6.8890    3.5880 C   0  0  1  0  0  3  0  0  0  0  0  0
    3.8670   -7.6040    4.8170 O   0  0  0  0  0  0  0  0  0  0  0  0
    4.6830   -8.1310    4.9310 H   0  0  0  0  0  0  0  0  0  0  0  0
    4.3730   -6.3350    0.4450 C   0  0  0  0  0  2  0  0  0  0  0  0
    4.3180   -7.5080   -0.3620 O   0  0  0  0  0  0  0  0  0  0  0  0
    5.2460   -7.7340   -0.5720 H   0  0  0  0  0  0  0  0  0  0  0  0
    1.8080   -1.1990    6.5420 N   0  0  0  0  0  0  0  0  0  0  0  0
    1.6450   -0.6970    5.6810 H   0  0  0  0  0  0  0  0  0  0  0  0
    1.4730   -0.8720    7.4320 H   0  0  0  0  0  0  0  0  0  0  0  0
  1 21  1  0  0  0  0
  1  2  1  0  0  0  0
  3  2  2  0  0  0  0
  4  3  1  0  0  0  0
  5  4  2  0  0  0  0
  6  5  1  0  0  0  0
  6  1  2  0  0  0  0
  7  6  1  0  0  0  0
  8  7  2  0  0  0  0
  8  9  1  0  0  0  0
  9  5  1  0  0  0  0
 10  9  1  6  0  0  0
 11 10  1  0  0  0  0
 12 18  1  6  0  0  0
 12 11  1  0  0  0  0
 12 13  1  0  0  0  0
 13 14  1  1  0  0  0
 13 15  1  0  0  0  0
 15 10  1  0  0  0  0
 15 16  1  1  0  0  0
 16 17  1  0  0  0  0
 19 18  1  0  0  0  0
 20 19  1  0  0  0  0
 21 23  1  0  0  0  0
 22 21  1  0  0  0  0
M  END
>  <minimizedAffinity>
-5.30314827

$$$$

 OpenBabel09122221543D

 23 25  0  0  1  0  0  0  0  0999 V2000
    5.0170   -7.4760    1.6290 C   0  0  0  0  0  0  0  0  0  0  0  0
    5.7190   -6.3480    1.3750 N   0  0  0  0  0  0  0  0  0  0  0  0
    5.5980   -5.3120    2.2310 C   0  0  0  0  0  3  0  0  0  0  0  0
    4.8520   -5.2320    3.3530 N   0  0  0  0  0  0  0  0  0  0  0  0
    4.1700   -6.3720    3.5560 C   0  0  0  0  0  0  0  0  0  0  0  0
    4.1960   -7.5120    2.7680 C   0  0  0  0  0  0  0  0  0  0  0  0
    3.3750   -8.4900    3.2930 N   0  0  0  0  0  0  0  0  0  0  0  0
    2.8590   -7.9490    4.3770 C   0  0  0  0  0  3  0  0  0  0  0  0
    3.3080   -6.6680    4.5760 N   0  0  0  0  0  0  0  0  0  0  0  0
    2.9190   -5.8100    5.6740 C   0  0  2  0  0  3  0  0  0  0  0  0
    2.2160   -4.6640    5.1490 O   0  0  0  0  0  0  0  0  0  0  0  0
    2.6010   -3.5080    5.9400 C   0  0  1  0  0  3  0  0  0  0  0  0
    3.4590   -4.0220    7.0820 C   0  0  1  0  0  3  0  0  0  0  0  0
    2.6360   -4.4020    8.1090 F   0  0  0  0  0  0  0  0  0  0  0  0
    4.0770   -5.2840    6.5210 C   0  0  1  0  0  3  0  0  0  0  0  0
    4.4770   -6.1840    7.5540 O   0  0  0  0  0  0  0  0  0  0  0  0
    3.8600   -6.0650    8.3030 H   0  0  0  0  0  0  0  0  0  0  0  0
    3.3490   -2.5270    5.0370 C   0  0  0  0  0  2  0  0  0  0  0  0
    3.1190   -2.8590    3.6710 O   0  0  0  0  0  0  0  0  0  0  0  0
    3.3530   -3.8040    3.5810 H   0  0  0  0  0  0  0  0  0  0  0  0
    5.1410   -8.5330    0.7570 N   0  0  0  0  0  0  0  0  0  0  0  0
    4.6180   -9.3790    0.9350 H   0  0  0  0  0  0  0  0  0  0  0  0
    5.7460   -8.4280   -0.0400 H   0  0  0  0  0  0  0  0  0  0  0  0
  1  6  1  0  0  0  0
  2  1  2  0  0  0  0
  2  3  1  0  0  0  0
  3  4  2  0  0  0  0
  4  5  1  0  0  0  0
  5  9  1  0  0  0  0
  6  7  1  0  0  0  0
  6  5  2  0  0  0  0
  7  8  2  0  0  0  0
  8  9  1  0  0  0  0
 10  9  1  6  0  0  0
 10 15  1  0  0  0  0
 11 10  1  0  0  0  0
 11 12  1  0  0  0  0
 12 18  1  6  0  0  0
 12 13  1  0  0  0  0
 13 14  1  1  0  0  0
 15 13  1  0  0  0  0
 15 16  1  1  0  0  0
 16 17  1  0  0  0  0
 19 18  1  0  0  0  0
 20 19  1  0  0  0  0
 21 22  1  0  0  0  0
 21  1  1  0  0  0  0
 23 21  1  0  0  0  0
M  END
>  <minimizedAffinity>
-5.17567587

$$$$

 OpenBabel09122221543D

 23 25  0  0  1  0  0  0  0  0999 V2000
    5.0200   -7.6740    0.8550 C   0  0  0  0  0  0  0  0  0  0  0  0
    5.7810   -6.5560    0.8870 N   0  0  0  0  0  0  0  0  0  0  0  0
    5.7090   -5.7640    1.9770 C   0  0  0  0  0  3  0  0  0  0  0  0
    4.9630   -5.9290    3.0880 N   0  0  0  0  0  0  0  0  0  0  0  0
    4.2210   -7.0470    3.0040 C   0  0  0  0  0  0  0  0  0  0  0  0
    4.1920   -7.9530    1.9550 C   0  0  0  0  0  0  0  0  0  0  0  0
    3.3190   -8.9880    2.2240 N   0  0  0  0  0  0  0  0  0  0  0  0
    2.8260   -8.7100    3.4140 C   0  0  0  0  0  3  0  0  0  0  0  0
    3.3400   -7.5460    3.9240 N   0  0  0  0  0  0  0  0  0  0  0  0
    2.9890   -6.9720    5.2050 C   0  0  2  0  0  3  0  0  0  0  0  0
    4.0320   -7.2710    6.1570 O   0  0  0  0  0  0  0  0  0  0  0  0
    3.3990   -7.5350    7.4370 C   0  0  1  0  0  3  0  0  0  0  0  0
    1.9220   -7.2320    7.2700 C   0  0  1  0  0  3  0  0  0  0  0  0
    1.7230   -5.8940    7.4920 F   0  0  0  0  0  0  0  0  0  0  0  0
    1.6740   -7.4770    5.7970 C   0  0  1  0  0  3  0  0  0  0  0  0
    0.5300   -6.7650    5.3260 O   0  0  0  0  0  0  0  0  0  0  0  0
    0.4610   -5.9400    5.8460 H   0  0  0  0  0  0  0  0  0  0  0  0
    3.6610   -8.9920    7.8190 C   0  0  0  0  0  2  0  0  0  0  0  0
    4.6830   -9.5310    6.9860 O   0  0  0  0  0  0  0  0  0  0  0  0
    4.3970   -9.3630    6.0660 H   0  0  0  0  0  0  0  0  0  0  0  0
    5.0940   -8.4840   -0.2550 N   0  0  0  0  0  0  0  0  0  0  0  0
    4.5270   -9.3190   -0.2910 H   0  0  0  0  0  0  0  0  0  0  0  0
    5.7080   -8.2140   -1.0050 H   0  0  0  0  0  0  0  0  0  0  0  0
  1  2  2  0  0  0  0
  1  6  1  0  0  0  0
  2  3  1  0  0  0  0
  3  4  2  0  0  0  0
  5  4  1  0  0  0  0
  5  9  1  0  0  0  0
  6  7  1  0  0  0  0
  6  5  2  0  0  0  0
  7  8  2  0  0  0  0
  8  9  1  0  0  0  0
 10  9  1  6  0  0  0
 10 15  1  0  0  0  0
 10 11  1  0  0  0  0
 11 12  1  0  0  0  0
 12 18  1  6  0  0  0
 13 12  1  0  0  0  0
 13 14  1  6  0  0  0
 15 16  1  6  0  0  0
 15 13  1  0  0  0  0
 16 17  1  0  0  0  0
 19 18  1  0  0  0  0
 20 19  1  0  0  0  0
 21  1  1  0  0  0  0
 22 21  1  0  0  0  0
 23 21  1  0  0  0  0
M  END
>  <minimizedAffinity>
-5.13105726

$$$$

 OpenBabel09122221543D

 23 25  0  0  1  0  0  0  0  0999 V2000
    5.0000   -7.9470    1.3360 C   0  0  0  0  0  0  0  0  0  0  0  0
    4.3640   -9.0510    1.7900 N   0  0  0  0  0  0  0  0  0  0  0  0
    3.7490   -8.9880    2.9900 C   0  0  0  0  0  3  0  0  0  0  0  0
    3.6680   -7.9420    3.8380 N   0  0  0  0  0  0  0  0  0  0  0  0
    4.3200   -6.8750    3.3460 C   0  0  0  0  0  0  0  0  0  0  0  0
    4.9910   -6.7920    2.1350 C   0  0  0  0  0  0  0  0  0  0  0  0
    5.5330   -5.5340    1.9590 N   0  0  0  0  0  0  0  0  0  0  0  0
    5.1980   -4.8700    3.0460 C   0  0  0  0  0  3  0  0  0  0  0  0
    4.4660   -5.6390    3.9140 N   0  0  0  0  0  0  0  0  0  0  0  0
    3.9600   -5.1970    5.1950 C   0  0  2  0  0  3  0  0  0  0  0  0
    2.6020   -4.7360    5.0310 O   0  0  0  0  0  0  0  0  0  0  0  0
    2.4180   -3.5840    5.8960 C   0  0  1  0  0  3  0  0  0  0  0  0
    3.6840   -3.4470    6.7220 C   0  0  1  0  0  3  0  0  0  0  0  0
    3.5700   -4.2460    7.8290 F   0  0  0  0  0  0  0  0  0  0  0  0
    4.7510   -4.0600    5.8420 C   0  0  1  0  0  3  0  0  0  0  0  0
    5.8720   -4.5110    6.6010 O   0  0  0  0  0  0  0  0  0  0  0  0
    5.5400   -4.7940    7.4770 H   0  0  0  0  0  0  0  0  0  0  0  0
    2.1500   -2.3570    5.0230 C   0  0  0  0  0  2  0  0  0  0  0  0
    2.5820   -2.6120    3.6890 O   0  0  0  0  0  0  0  0  0  0  0  0
    3.5120   -2.9060    3.7600 H   0  0  0  0  0  0  0  0  0  0  0  0
    5.6260   -8.0100    0.1120 N   0  0  0  0  0  0  0  0  0  0  0  0
    6.1070   -7.1930   -0.2350 H   0  0  0  0  0  0  0  0  0  0  0  0
    5.5910   -8.8760   -0.4000 H   0  0  0  0  0  0  0  0  0  0  0  0
  1  2  2  0  0  0  0
  1  6  1  0  0  0  0
  2  3  1  0  0  0  0
  3  4  2  0  0  0  0
  5  4  1  0  0  0  0
  5  9  1  0  0  0  0
  6  5  2  0  0  0  0
  7  6  1  0  0  0  0
  7  8  2  0  0  0  0
  8  9  1  0  0  0  0
 10  9  1  6  0  0  0
 10 15  1  0  0  0  0
 11 10  1  0  0  0  0
 11 12  1  0  0  0  0
 12 18  1  6  0  0  0
 12 13  1  0  0  0  0
 13 14  1  1  0  0  0
 15 16  1  1  0  0  0
 15 13  1  0  0  0  0
 16 17  1  0  0  0  0
 19 20  1  0  0  0  0
 19 18  1  0  0  0  0
 21  1  1  0  0  0  0
 22 21  1  0  0  0  0
 23 21  1  0  0  0  0
M  END
>  <minimizedAffinity>
-5.12793827

$$$$

 OpenBabel09122221543D

 23 25  0  0  1  0  0  0  0  0999 V2000
    4.0090   -7.0000    3.8890 C   0  0  0  0  0  0  0  0  0  0  0  0
    3.5970   -7.5470    5.0550 N   0  0  0  0  0  0  0  0  0  0  0  0
    3.2150   -6.7200    6.0510 C   0  0  0  0  0  3  0  0  0  0  0  0
    3.1790   -5.3720    6.0550 N   0  0  0  0  0  0  0  0  0  0  0  0
    3.6050   -4.8780    4.8800 C   0  0  0  0  0  0  0  0  0  0  0  0
    4.0240   -5.6000    3.7730 C   0  0  0  0  0  0  0  0  0  0  0  0
    4.3800   -4.7540    2.7410 N   0  0  0  0  0  0  0  0  0  0  0  0
    4.1830   -3.5430    3.2180 C   0  0  0  0  0  3  0  0  0  0  0  0
    3.7180   -3.5660    4.5080 N   0  0  0  0  0  0  0  0  0  0  0  0
    3.4150   -2.3980    5.3060 C   0  0  2  0  0  3  0  0  0  0  0  0
    4.2930   -2.3680    6.4500 O   0  0  0  0  0  0  0  0  0  0  0  0
    3.5290   -1.8760    7.5820 C   0  0  1  0  0  3  0  0  0  0  0  0
    2.1720   -1.4540    7.0480 C   0  0  1  0  0  3  0  0  0  0  0  0
    2.2630   -0.1630    6.5990 F   0  0  0  0  0  0  0  0  0  0  0  0
    1.9810   -2.3330    5.8320 C   0  0  1  0  0  3  0  0  0  0  0  0
    1.0620   -1.7610    4.9020 O   0  0  0  0  0  0  0  0  0  0  0  0
    1.1430   -0.7880    4.9680 H   0  0  0  0  0  0  0  0  0  0  0  0
    3.4300   -2.9900    8.6250 C   0  0  0  0  0  2  0  0  0  0  0  0
    4.3870   -4.0050    8.3360 O   0  0  0  0  0  0  0  0  0  0  0  0
    4.2340   -4.2610    7.4040 H   0  0  0  0  0  0  0  0  0  0  0  0
    4.3970   -7.8420    2.8720 N   0  0  0  0  0  0  0  0  0  0  0  0
    4.7120   -7.4440    1.9980 H   0  0  0  0  0  0  0  0  0  0  0  0
    4.3630   -8.8350    3.0330 H   0  0  0  0  0  0  0  0  0  0  0  0
  1  2  1  0  0  0  0
  2  3  2  0  0  0  0
  3  4  1  0  0  0  0
  5  4  2  0  0  0  0
  6  1  2  0  0  0  0
  6  5  1  0  0  0  0
  7  8  2  0  0  0  0
  7  6  1  0  0  0  0
  8  9  1  0  0  0  0
  9  5  1  0  0  0  0
 10  9  1  1  0  0  0
 10 15  1  0  0  0  0
 10 11  1  0  0  0  0
 11 12  1  0  0  0  0
 12 18  1  1  0  0  0
 13 14  1  6  0  0  0
 13 12  1  0  0  0  0
 15 16  1  6  0  0  0
 15 13  1  0  0  0  0
 16 17  1  0  0  0  0
 19 18  1  0  0  0  0
 20 19  1  0  0  0  0
 21 23  1  0  0  0  0
 21  1  1  0  0  0  0
 22 21  1  0  0  0  0
M  END
>  <minimizedAffinity>
-5.09006882

$$$$

 OpenBabel09122221543D

 23 25  0  0  1  0  0  0  0  0999 V2000
    2.2790   -1.5850    8.0680 C   0  0  0  0  0  0  0  0  0  0  0  0
    1.8350   -1.0230    6.9210 N   0  0  0  0  0  0  0  0  0  0  0  0
    2.0070   -1.7020    5.7670 C   0  0  0  0  0  3  0  0  0  0  0  0
    2.5770   -2.9100    5.5800 N   0  0  0  0  0  0  0  0  0  0  0  0
    3.0090   -3.4210    6.7460 C   0  0  0  0  0  0  0  0  0  0  0  0
    2.9000   -2.8430    8.0020 C   0  0  0  0  0  0  0  0  0  0  0  0
    3.4470   -3.6640    8.9690 N   0  0  0  0  0  0  0  0  0  0  0  0
    3.8810   -4.7170    8.3080 C   0  0  0  0  0  3  0  0  0  0  0  0
    3.6410   -4.6150    6.9620 N   0  0  0  0  0  0  0  0  0  0  0  0
    4.0070   -5.6050    5.9730 C   0  0  2  0  0  3  0  0  0  0  0  0
    5.0080   -5.0480    5.0950 O   0  0  0  0  0  0  0  0  0  0  0  0
    4.7400   -5.5330    3.7530 C   0  0  1  0  0  3  0  0  0  0  0  0
    3.6140   -6.5440    3.8670 C   0  0  1  0  0  3  0  0  0  0  0  0
    4.1560   -7.7690    4.1580 F   0  0  0  0  0  0  0  0  0  0  0  0
    2.8540   -6.0930    5.0950 C   0  0  1  0  0  3  0  0  0  0  0  0
    2.1090   -7.1610    5.6810 O   0  0  0  0  0  0  0  0  0  0  0  0
    2.6010   -7.9890    5.5150 H   0  0  0  0  0  0  0  0  0  0  0  0
    4.3730   -4.3410    2.8690 C   0  0  0  0  0  2  0  0  0  0  0  0
    4.6810   -3.1260    3.5460 O   0  0  0  0  0  0  0  0  0  0  0  0
    4.2350   -3.1820    4.4150 H   0  0  0  0  0  0  0  0  0  0  0  0
    2.1030   -0.8940    9.2460 N   0  0  0  0  0  0  0  0  0  0  0  0
    2.4350   -1.3020   10.1080 H   0  0  0  0  0  0  0  0  0  0  0  0
    1.6530    0.0050    9.2100 H   0  0  0  0  0  0  0  0  0  0  0  0
  1 21  1  0  0  0  0
  2  1  2  0  0  0  0
  3  2  1  0  0  0  0
  4  3  2  0  0  0  0
  4  5  1  0  0  0  0
  5  9  1  0  0  0  0
  5  6  2  0  0  0  0
  6  1  1  0  0  0  0
  6  7  1  0  0  0  0
  8  7  2  0  0  0  0
  9  8  1  0  0  0  0
 10  9  1  1  0  0  0
 11 10  1  0  0  0  0
 12 18  1  6  0  0  0
 12 13  1  0  0  0  0
 12 11  1  0  0  0  0
 13 14  1  1  0  0  0
 13 15  1  0  0  0  0
 15 16  1  1  0  0  0
 15 10  1  0  0  0  0
 17 16  1  0  0  0  0
 18 19  1  0  0  0  0
 19 20  1  0  0  0  0
 21 22  1  0  0  0  0
 23 21  1  0  0  0  0
M  END
>  <minimizedAffinity>
-5.05990028

$$$$

 OpenBabel09122221543D

 23 25  0  0  1  0  0  0  0  0999 V2000
    2.1630   -2.2150    8.8140 C   0  0  0  0  0  0  0  0  0  0  0  0
    1.6570   -3.1580    9.6410 N   0  0  0  0  0  0  0  0  0  0  0  0
    1.8300   -4.4560    9.3140 C   0  0  0  0  0  3  0  0  0  0  0  0
    2.4630   -4.9750    8.2420 N   0  0  0  0  0  0  0  0  0  0  0  0
    2.9390   -4.0000    7.4490 C   0  0  0  0  0  0  0  0  0  0  0  0
    2.8390   -2.6330    7.6550 C   0  0  0  0  0  0  0  0  0  0  0  0
    3.4560   -1.9350    6.6350 N   0  0  0  0  0  0  0  0  0  0  0  0
    3.9170   -2.8650    5.8250 C   0  0  0  0  0  3  0  0  0  0  0  0
    3.6270   -4.1290    6.2730 N   0  0  0  0  0  0  0  0  0  0  0  0
    3.9910   -5.3560    5.6000 C   0  0  2  0  0  3  0  0  0  0  0  0
    5.0790   -5.0890    4.6890 O   0  0  0  0  0  0  0  0  0  0  0  0
    4.8660   -5.8920    3.4980 C   0  0  1  0  0  3  0  0  0  0  0  0
    3.6740   -6.7880    3.7780 C   0  0  1  0  0  3  0  0  0  0  0  0
    4.1190   -7.9190    4.4120 F   0  0  0  0  0  0  0  0  0  0  0  0
    2.8680   -6.0030    4.7890 C   0  0  1  0  0  3  0  0  0  0  0  0
    2.0220   -6.8480    5.5680 O   0  0  0  0  0  0  0  0  0  0  0  0
    2.4710   -7.7120    5.6570 H   0  0  0  0  0  0  0  0  0  0  0  0
    4.6300   -4.9540    2.3140 C   0  0  0  0  0  2  0  0  0  0  0  0
    4.7500   -5.6790    1.0940 O   0  0  0  0  0  0  0  0  0  0  0  0
    5.6180   -6.1280    1.1320 H   0  0  0  0  0  0  0  0  0  0  0  0
    1.9880   -0.8910    9.1470 N   0  0  0  0  0  0  0  0  0  0  0  0
    2.3570   -0.1790    8.5340 H   0  0  0  0  0  0  0  0  0  0  0  0
    1.4880   -0.6730    9.9920 H   0  0  0  0  0  0  0  0  0  0  0  0
  1 21  1  0  0  0  0
  1  2  1  0  0  0  0
  3  2  2  0  0  0  0
  4  3  1  0  0  0  0
  5  6  1  0  0  0  0
  5  4  2  0  0  0  0
  6  1  2  0  0  0  0
  7  6  1  0  0  0  0
  8  9  1  0  0  0  0
  8  7  2  0  0  0  0
  9  5  1  0  0  0  0
 10  9  1  6  0  0  0
 11 10  1  0  0  0  0
 12 18  1  6  0  0  0
 12 13  1  0  0  0  0
 12 11  1  0  0  0  0
 13 14  1  1  0  0  0
 13 15  1  0  0  0  0
 15 16  1  1  0  0  0
 15 10  1  0  0  0  0
 16 17  1  0  0  0  0
 19 20  1  0  0  0  0
 19 18  1  0  0  0  0
 21 23  1  0  0  0  0
 22 21  1  0  0  0  0
M  END
>  <minimizedAffinity>
-5.02877474

$$$$
