
 OpenBabel09122222393D

 23 25  0  0  1  0  0  0  0  0999 V2000
    4.0090   -7.0000    3.8890 C   0  0  0  0  0  0  0  0  0  0  0  0
    3.5970   -7.5470    5.0550 N   0  0  0  0  0  0  0  0  0  0  0  0
    3.2150   -6.7200    6.0510 C   0  0  0  0  0  3  0  0  0  0  0  0
    3.1790   -5.3720    6.0550 N   0  0  0  0  0  0  0  0  0  0  0  0
    3.6050   -4.8780    4.8800 C   0  0  0  0  0  0  0  0  0  0  0  0
    4.0240   -5.6000    3.7730 C   0  0  0  0  0  0  0  0  0  0  0  0
    4.3800   -4.7540    2.7410 N   0  0  0  0  0  0  0  0  0  0  0  0
    4.1830   -3.5430    3.2180 C   0  0  0  0  0  3  0  0  0  0  0  0
    3.7180   -3.5660    4.5080 N   0  0  0  0  0  0  0  0  0  0  0  0
    3.4150   -2.3980    5.3060 C   0  0  2  0  0  3  0  0  0  0  0  0
    4.2930   -2.3680    6.4500 O   0  0  0  0  0  0  0  0  0  0  0  0
    3.5290   -1.8760    7.5820 C   0  0  1  0  0  3  0  0  0  0  0  0
    2.1720   -1.4540    7.0480 C   0  0  1  0  0  3  0  0  0  0  0  0
    2.2630   -0.1630    6.5990 F   0  0  0  0  0  0  0  0  0  0  0  0
    1.9810   -2.3330    5.8320 C   0  0  1  0  0  3  0  0  0  0  0  0
    1.0620   -1.7610    4.9020 O   0  0  0  0  0  0  0  0  0  0  0  0
    1.1430   -0.7880    4.9680 H   0  0  0  0  0  0  0  0  0  0  0  0
    3.4300   -2.9900    8.6250 C   0  0  0  0  0  2  0  0  0  0  0  0
    4.3870   -4.0050    8.3360 O   0  0  0  0  0  0  0  0  0  0  0  0
    4.2340   -4.2610    7.4040 H   0  0  0  0  0  0  0  0  0  0  0  0
    4.3970   -7.8420    2.8720 N   0  0  0  0  0  0  0  0  0  0  0  0
    4.7120   -7.4440    1.9980 H   0  0  0  0  0  0  0  0  0  0  0  0
    4.3630   -8.8350    3.0330 H   0  0  0  0  0  0  0  0  0  0  0  0
  1  2  1  0  0  0  0
  2  3  2  0  0  0  0
  3  4  1  0  0  0  0
  5  4  2  0  0  0  0
  6  1  2  0  0  0  0
  6  5  1  0  0  0  0
  7  8  2  0  0  0  0
  7  6  1  0  0  0  0
  8  9  1  0  0  0  0
  9  5  1  0  0  0  0
 10  9  1  1  0  0  0
 10 15  1  0  0  0  0
 10 11  1  0  0  0  0
 11 12  1  0  0  0  0
 12 18  1  1  0  0  0
 13 14  1  6  0  0  0
 13 12  1  0  0  0  0
 15 16  1  6  0  0  0
 15 13  1  0  0  0  0
 16 17  1  0  0  0  0
 19 18  1  0  0  0  0
 20 19  1  0  0  0  0
 21 23  1  0  0  0  0
 21  1  1  0  0  0  0
 22 21  1  0  0  0  0
M  END
>  <minimizedAffinity>
-5.09006882

$$$$
