
 OpenBabel09132204463D

 29 31  0  0  0  0  0  0  0  0999 V2000
    8.1050   -4.4920    1.1240 C   0  0  0  0  0  0  0  0  0  0  0  0
    6.8280   -4.9300    1.1100 C   0  0  0  0  0  2  0  0  0  0  0  0
    5.9140   -4.9710    2.2550 C   0  0  0  0  0  0  0  0  0  0  0  0
    5.9640   -3.9540    3.2150 C   0  0  0  0  0  3  0  0  0  0  0  0
    5.0980   -3.9790    4.3110 C   0  0  0  0  0  3  0  0  0  0  0  0
    4.1730   -5.0140    4.4440 C   0  0  0  0  0  0  0  0  0  0  0  0
    4.1410   -6.0530    3.5100 C   0  0  0  0  0  3  0  0  0  0  0  0
    5.0070   -6.0260    2.4140 C   0  0  0  0  0  3  0  0  0  0  0  0
    3.3630   -4.9850    5.5570 O   0  0  0  0  0  0  0  0  0  0  0  0
    2.9120   -3.7520    5.9750 C   0  0  0  0  0  0  0  0  0  0  0  0
    2.1420   -2.9480    5.1230 C   0  0  0  0  0  3  0  0  0  0  0  0
    1.7220   -1.6840    5.5410 C   0  0  0  0  0  3  0  0  0  0  0  0
    2.0850   -1.2100    6.8020 C   0  0  0  0  0  3  0  0  0  0  0  0
    2.8740   -1.9960    7.6450 C   0  0  0  0  0  3  0  0  0  0  0  0
    3.2950   -3.2630    7.2290 C   0  0  0  0  0  0  0  0  0  0  0  0
    4.4800   -4.3840    8.5400 I   0  0  0  0  0  0  0  0  0  0  0  0
    8.7180   -4.0860    2.3030 N   0  0  0  0  0  4  0  0  0  0  0  0
    9.5010   -2.9910    2.5900 C   0  0  0  0  0  0  0  0  0  0  0  0
   10.1590   -2.9730    3.6340 O   0  0  0  0  0  0  0  0  0  0  0  0
    8.6730   -4.7370    3.0750 H   0  0  0  0  0  0  0  0  0  0  0  0
    9.5010   -1.7750    1.7480 C   0  0  0  0  0  0  0  0  0  0  0  0
   10.1160   -1.8300    0.4920 C   0  0  0  0  0  3  0  0  0  0  0  0
   10.2040   -0.6800   -0.2950 C   0  0  0  0  0  3  0  0  0  0  0  0
    9.6920    0.5290    0.1790 C   0  0  0  0  0  3  0  0  0  0  0  0
    9.1020    0.5920    1.4420 C   0  0  0  0  0  3  0  0  0  0  0  0
    9.0190   -0.5560    2.2340 C   0  0  0  0  0  3  0  0  0  0  0  0
    8.0310   -4.6330   -1.2630 O   0  0  0  0  0  0  0  0  0  0  0  0
    8.8120   -4.6150   -0.2660 C   0  0  0  0  0  0  0  0  0  0  0  0
   10.0700   -4.7220   -0.2120 O   0  0  0  0  0  1  0  0  0  0  0  0
  1 17  2  0  0  0  0
  2  1  1  0  0  0  0
  2  3  1  0  0  0  0
  3  8  2  0  0  0  0
  3  4  1  0  0  0  0
  4  5  2  0  0  0  0
  5  6  1  0  0  0  0
  6  9  1  0  0  0  0
  7  6  2  0  0  0  0
  8  7  1  0  0  0  0
  9 10  1  0  0  0  0
 10 15  1  0  0  0  0
 11 12  1  0  0  0  0
 11 10  2  0  0  0  0
 12 13  2  0  0  0  0
 13 14  1  0  0  0  0
 15 14  2  0  0  0  0
 15 16  1  0  0  0  0
 17 18  1  0  0  0  0
 17 20  1  0  0  0  0
 18 19  2  0  0  0  0
 21 26  1  0  0  0  0
 21 18  1  0  0  0  0
 22 21  2  0  0  0  0
 23 24  2  0  0  0  0
 23 22  1  0  0  0  0
 24 25  1  0  0  0  0
 25 26  2  0  0  0  0
 27 28  2  0  0  0  0
 28 29  1  0  0  0  0
 28  1  1  0  0  0  0
M  END
>  <minimizedAffinity>
-6.48859644

$$$$
