
 OpenBabel09132204463D

 29 31  0  0  0  0  0  0  0  0999 V2000
    9.0820   10.4580   -0.1190 C   0  0  0  0  0  0  0  0  0  0  0  0
   10.1590    9.8860   -0.6960 C   0  0  0  0  0  2  0  0  0  0  0  0
   10.7380    8.5840   -0.3500 C   0  0  0  0  0  0  0  0  0  0  0  0
   11.9940    8.5280    0.2620 C   0  0  0  0  0  3  0  0  0  0  0  0
   12.5570    7.2950    0.5980 C   0  0  0  0  0  3  0  0  0  0  0  0
   11.8610    6.1160    0.3330 C   0  0  0  0  0  0  0  0  0  0  0  0
   10.6220    6.1610   -0.3110 C   0  0  0  0  0  3  0  0  0  0  0  0
   10.0600    7.3950   -0.6460 C   0  0  0  0  0  3  0  0  0  0  0  0
   12.4840    4.9360    0.6760 O   0  0  0  0  0  0  0  0  0  0  0  0
   11.7000    3.8030    0.7240 C   0  0  0  0  0  0  0  0  0  0  0  0
   11.5460    2.9940   -0.4100 C   0  0  0  0  0  3  0  0  0  0  0  0
   10.7190    1.8700   -0.3620 C   0  0  0  0  0  3  0  0  0  0  0  0
   10.0300    1.5610    0.8100 C   0  0  0  0  0  3  0  0  0  0  0  0
   10.1600    2.3780    1.9350 C   0  0  0  0  0  3  0  0  0  0  0  0
   10.9880    3.5040    1.8910 C   0  0  0  0  0  0  0  0  0  0  0  0
   11.1300    4.6880    3.6100 I   0  0  0  0  0  0  0  0  0  0  0  0
    8.4350    9.8630    0.9570 N   0  0  0  0  0  4  0  0  0  0  0  0
    8.8240    9.6820    2.2650 C   0  0  0  0  0  0  0  0  0  0  0  0
    8.2020    8.8900    2.9780 O   0  0  0  0  0  0  0  0  0  0  0  0
    7.5660    9.3920    0.7490 H   0  0  0  0  0  0  0  0  0  0  0  0
    9.8960   10.4860    2.8910 C   0  0  0  0  0  0  0  0  0  0  0  0
   11.0350    9.8290    3.3680 C   0  0  0  0  0  3  0  0  0  0  0  0
   12.0300   10.5470    4.0350 C   0  0  0  0  0  3  0  0  0  0  0  0
   11.8790   11.9190    4.2400 C   0  0  0  0  0  3  0  0  0  0  0  0
   10.7320   12.5730    3.7880 C   0  0  0  0  0  3  0  0  0  0  0  0
    9.7320   11.8550    3.1260 C   0  0  0  0  0  3  0  0  0  0  0  0
    9.4400   12.8200   -0.2360 O   0  0  0  0  0  1  0  0  0  0  0  0
    8.7470   11.8700   -0.7050 C   0  0  0  0  0  0  0  0  0  0  0  0
    7.7990   11.8850   -1.5410 O   0  0  0  0  0  0  0  0  0  0  0  0
  1 17  2  0  0  0  0
  2  3  1  0  0  0  0
  2  1  1  0  0  0  0
  3  4  1  0  0  0  0
  4  5  2  0  0  0  0
  6  5  1  0  0  0  0
  6  9  1  0  0  0  0
  7  6  2  0  0  0  0
  8  3  2  0  0  0  0
  8  7  1  0  0  0  0
  9 10  1  0  0  0  0
 10 15  1  0  0  0  0
 11 12  1  0  0  0  0
 11 10  2  0  0  0  0
 12 13  2  0  0  0  0
 13 14  1  0  0  0  0
 15 14  2  0  0  0  0
 15 16  1  0  0  0  0
 17 18  1  0  0  0  0
 18 21  1  0  0  0  0
 18 19  2  0  0  0  0
 20 17  1  0  0  0  0
 21 26  2  0  0  0  0
 21 22  1  0  0  0  0
 22 23  2  0  0  0  0
 23 24  1  0  0  0  0
 25 24  2  0  0  0  0
 26 25  1  0  0  0  0
 28 27  1  0  0  0  0
 28  1  1  0  0  0  0
 29 28  2  0  0  0  0
M  END
>  <minimizedAffinity>
-6.20524216

$$$$
