
 OpenBabel09132204463D

 29 31  0  0  0  0  0  0  0  0999 V2000
    8.8550   11.0900    0.2350 C   0  0  0  0  0  0  0  0  0  0  0  0
    8.4460    9.8700    0.6430 C   0  0  0  0  0  2  0  0  0  0  0  0
    9.3040    8.7100    0.9000 C   0  0  0  0  0  0  0  0  0  0  0  0
   10.0090    8.1250   -0.1560 C   0  0  0  0  0  3  0  0  0  0  0  0
   10.8320    7.0200    0.0740 C   0  0  0  0  0  3  0  0  0  0  0  0
   10.9600    6.5040    1.3630 C   0  0  0  0  0  0  0  0  0  0  0  0
   10.2320    7.0600    2.4180 C   0  0  0  0  0  3  0  0  0  0  0  0
    9.4100    8.1650    2.1860 C   0  0  0  0  0  3  0  0  0  0  0  0
   11.7730    5.4030    1.5150 O   0  0  0  0  0  0  0  0  0  0  0  0
   11.1620    4.2080    1.8260 C   0  0  0  0  0  0  0  0  0  0  0  0
   10.2890    3.5950    0.9170 C   0  0  0  0  0  3  0  0  0  0  0  0
    9.6450    2.4040    1.2570 C   0  0  0  0  0  3  0  0  0  0  0  0
    9.8550    1.8310    2.5100 C   0  0  0  0  0  3  0  0  0  0  0  0
   10.7040    2.4500    3.4300 C   0  0  0  0  0  3  0  0  0  0  0  0
   11.3520    3.6430    3.0930 C   0  0  0  0  0  0  0  0  0  0  0  0
   12.6040    4.5210    4.5210 I   0  0  0  0  0  0  0  0  0  0  0  0
   10.1890   11.3450   -0.0600 N   0  0  0  0  0  4  0  0  0  0  0  0
   11.2430   11.7120    0.7460 C   0  0  0  0  0  0  0  0  0  0  0  0
   12.2770   12.1450    0.2300 O   0  0  0  0  0  0  0  0  0  0  0  0
   10.4330   11.3590   -1.0400 H   0  0  0  0  0  0  0  0  0  0  0  0
   11.2330   11.5020    2.2090 C   0  0  0  0  0  0  0  0  0  0  0  0
   12.0190   10.4750    2.7440 C   0  0  0  0  0  3  0  0  0  0  0  0
   11.9720   10.1970    4.1120 C   0  0  0  0  0  3  0  0  0  0  0  0
   11.1290   10.9350    4.9440 C   0  0  0  0  0  3  0  0  0  0  0  0
   10.3260   11.9430    4.4090 C   0  0  0  0  0  3  0  0  0  0  0  0
   10.3650   12.2180    3.0400 C   0  0  0  0  0  3  0  0  0  0  0  0
    7.2660   12.1940   -1.1720 O   0  0  0  0  0  0  0  0  0  0  0  0
    7.6760   12.0950    0.0230 C   0  0  0  0  0  0  0  0  0  0  0  0
    7.3100   12.7100    1.0650 O   0  0  0  0  0  1  0  0  0  0  0  0
  1  2  1  0  0  0  0
  2  3  1  0  0  0  0
  3  8  1  0  0  0  0
  4  5  1  0  0  0  0
  4  3  2  0  0  0  0
  5  6  2  0  0  0  0
  6  9  1  0  0  0  0
  6  7  1  0  0  0  0
  8  7  2  0  0  0  0
  9 10  1  0  0  0  0
 10 15  1  0  0  0  0
 11 12  1  0  0  0  0
 11 10  2  0  0  0  0
 12 13  2  0  0  0  0
 13 14  1  0  0  0  0
 15 14  2  0  0  0  0
 15 16  1  0  0  0  0
 17  1  2  0  0  0  0
 17 18  1  0  0  0  0
 18 21  1  0  0  0  0
 19 18  2  0  0  0  0
 20 17  1  0  0  0  0
 21 22  2  0  0  0  0
 21 26  1  0  0  0  0
 22 23  1  0  0  0  0
 23 24  2  0  0  0  0
 25 24  1  0  0  0  0
 26 25  2  0  0  0  0
 27 28  2  0  0  0  0
 28  1  1  0  0  0  0
 28 29  1  0  0  0  0
M  END
>  <minimizedAffinity>
-6.19376612

$$$$
