
 OpenBabel09132204463D

 29 31  0  0  0  0  0  0  0  0999 V2000
    8.6090   11.3800   -0.3720 C   0  0  0  0  0  0  0  0  0  0  0  0
    8.2770   10.2770    0.3300 C   0  0  0  0  0  2  0  0  0  0  0  0
    9.1470    9.1300    0.6060 C   0  0  0  0  0  0  0  0  0  0  0  0
   10.1450    9.2400    1.5800 C   0  0  0  0  0  3  0  0  0  0  0  0
   10.9810    8.1550    1.8540 C   0  0  0  0  0  3  0  0  0  0  0  0
   10.8150    6.9560    1.1630 C   0  0  0  0  0  0  0  0  0  0  0  0
    9.8450    6.8490    0.1630 C   0  0  0  0  0  3  0  0  0  0  0  0
    9.0090    7.9340   -0.1090 C   0  0  0  0  0  3  0  0  0  0  0  0
   11.6860    5.9340    1.4720 O   0  0  0  0  0  0  0  0  0  0  0  0
   11.2050    4.9170    2.2680 C   0  0  0  0  0  0  0  0  0  0  0  0
   10.8530    5.1610    3.6030 C   0  0  0  0  0  3  0  0  0  0  0  0
   10.4040    4.1160    4.4120 C   0  0  0  0  0  3  0  0  0  0  0  0
   10.3220    2.8220    3.8990 C   0  0  0  0  0  3  0  0  0  0  0  0
   10.6960    2.5680    2.5780 C   0  0  0  0  0  3  0  0  0  0  0  0
   11.1460    3.6130    1.7640 C   0  0  0  0  0  0  0  0  0  0  0  0
   11.6960    3.1600   -0.2030 I   0  0  0  0  0  0  0  0  0  0  0  0
    9.8490   11.5000   -0.9870 N   0  0  0  0  0  4  0  0  0  0  0  0
   10.3160   11.0270   -2.1920 C   0  0  0  0  0  0  0  0  0  0  0  0
   11.5310   11.0250   -2.4130 O   0  0  0  0  0  0  0  0  0  0  0  0
   10.5800   11.9260   -0.4340 H   0  0  0  0  0  0  0  0  0  0  0  0
    9.4110   10.6210   -3.2880 C   0  0  0  0  0  0  0  0  0  0  0  0
    9.4050    9.2800   -3.6900 C   0  0  0  0  0  3  0  0  0  0  0  0
    8.6210    8.8780   -4.7740 C   0  0  0  0  0  3  0  0  0  0  0  0
    7.8560    9.8170   -5.4660 C   0  0  0  0  0  3  0  0  0  0  0  0
    7.8800   11.1590   -5.0840 C   0  0  0  0  0  3  0  0  0  0  0  0
    8.6680   11.5650   -4.0040 C   0  0  0  0  0  3  0  0  0  0  0  0
    7.0770   12.9540    0.5760 O   0  0  0  0  0  1  0  0  0  0  0  0
    7.4320   12.4010   -0.5070 C   0  0  0  0  0  0  0  0  0  0  0  0
    6.9580   12.5120   -1.6740 O   0  0  0  0  0  0  0  0  0  0  0  0
  1  2  1  0  0  0  0
  2  3  1  0  0  0  0
  3  4  1  0  0  0  0
  4  5  2  0  0  0  0
  6  9  1  0  0  0  0
  6  5  1  0  0  0  0
  7  6  2  0  0  0  0
  8  7  1  0  0  0  0
  8  3  2  0  0  0  0
  9 10  1  0  0  0  0
 10 11  1  0  0  0  0
 11 12  2  0  0  0  0
 13 12  1  0  0  0  0
 14 13  2  0  0  0  0
 15 10  2  0  0  0  0
 15 14  1  0  0  0  0
 16 15  1  0  0  0  0
 17 20  1  0  0  0  0
 17  1  2  3  0  0  0
 18 17  1  0  0  0  0
 19 18  2  0  0  0  0
 21 18  1  0  0  0  0
 22 21  1  0  0  0  0
 23 22  2  0  0  0  0
 24 25  2  0  0  0  0
 24 23  1  0  0  0  0
 25 26  1  0  0  0  0
 26 21  2  0  0  0  0
 28  1  1  0  0  0  0
 28 27  1  0  0  0  0
 29 28  2  0  0  0  0
M  END
>  <minimizedAffinity>
-6.56426477

$$$$
