
 OpenBabel09132204463D

 29 31  0  0  0  0  0  0  0  0999 V2000
   10.3990    6.4430    2.1310 C   0  0  0  0  0  0  0  0  0  0  0  0
   11.1670    6.3040    1.0300 C   0  0  0  0  0  2  0  0  0  0  0  0
   11.0270    7.0510   -0.2230 C   0  0  0  0  0  0  0  0  0  0  0  0
    9.7620    7.1960   -0.8030 C   0  0  0  0  0  3  0  0  0  0  0  0
    9.6140    7.9070   -1.9960 C   0  0  0  0  0  3  0  0  0  0  0  0
   10.7270    8.4830   -2.6070 C   0  0  0  0  0  0  0  0  0  0  0  0
   11.9990    8.3130   -2.0540 C   0  0  0  0  0  3  0  0  0  0  0  0
   12.1450    7.6030   -0.8600 C   0  0  0  0  0  3  0  0  0  0  0  0
   10.5100    9.1540   -3.7900 O   0  0  0  0  0  0  0  0  0  0  0  0
    9.9050   10.3900   -3.7100 C   0  0  0  0  0  0  0  0  0  0  0  0
   10.4240   11.3860   -2.8720 C   0  0  0  0  0  3  0  0  0  0  0  0
    9.7820   12.6210   -2.7690 C   0  0  0  0  0  3  0  0  0  0  0  0
    8.6100   12.8600   -3.4860 C   0  0  0  0  0  3  0  0  0  0  0  0
    8.0740   11.8630   -4.3030 C   0  0  0  0  0  3  0  0  0  0  0  0
    8.7150   10.6240   -4.4090 C   0  0  0  0  0  0  0  0  0  0  0  0
    7.8530    9.1730   -5.6450 I   0  0  0  0  0  0  0  0  0  0  0  0
    9.3070    7.3010    2.1480 N   0  0  0  0  0  4  0  0  0  0  0  0
    9.2220    8.6600    2.3560 C   0  0  0  0  0  0  0  0  0  0  0  0
    8.1230    9.1690    2.5930 O   0  0  0  0  0  0  0  0  0  0  0  0
    8.3970    6.8660    2.0920 H   0  0  0  0  0  0  0  0  0  0  0  0
   10.3830    9.5600    2.1940 C   0  0  0  0  0  0  0  0  0  0  0  0
   10.4630   10.3500    1.0420 C   0  0  0  0  0  3  0  0  0  0  0  0
   11.5840   11.1530    0.8190 C   0  0  0  0  0  3  0  0  0  0  0  0
   12.6330   11.1540    1.7390 C   0  0  0  0  0  3  0  0  0  0  0  0
   12.5680   10.3470    2.8760 C   0  0  0  0  0  3  0  0  0  0  0  0
   11.4500    9.5390    3.0980 C   0  0  0  0  0  3  0  0  0  0  0  0
   11.5390    4.5010    2.9370 O   0  0  0  0  0  0  0  0  0  0  0  0
   10.7970    5.4660    3.2860 C   0  0  0  0  0  0  0  0  0  0  0  0
   10.2930    5.7430    4.4120 O   0  0  0  0  0  1  0  0  0  0  0  0
  1 17  2  0  0  0  0
  1 28  1  0  0  0  0
  2  1  1  0  0  0  0
  3  2  1  0  0  0  0
  4  3  1  0  0  0  0
  5  4  2  0  0  0  0
  6  7  2  0  0  0  0
  6  5  1  0  0  0  0
  7  8  1  0  0  0  0
  8  3  2  0  0  0  0
  9 10  1  0  0  0  0
  9  6  1  0  0  0  0
 10 11  1  0  0  0  0
 11 12  2  0  0  0  0
 13 12  1  0  0  0  0
 14 13  2  0  0  0  0
 15 14  1  0  0  0  0
 15 10  2  0  0  0  0
 16 15  1  0  0  0  0
 17 18  1  0  0  0  0
 18 19  2  0  0  0  0
 20 17  1  0  0  0  0
 21 18  1  0  0  0  0
 21 26  1  0  0  0  0
 22 21  2  0  0  0  0
 23 22  1  0  0  0  0
 23 24  2  0  0  0  0
 24 25  1  0  0  0  0
 25 26  2  0  0  0  0
 27 28  2  0  0  0  0
 28 29  1  0  0  0  0
M  END
>  <minimizedAffinity>
-6.34603548

$$$$
