
 OpenBabel09132204463D

 29 31  0  0  0  0  0  0  0  0999 V2000
    9.1750   -3.9680    0.6990 C   0  0  0  0  0  0  0  0  0  0  0  0
    8.4920   -3.3600    1.6930 C   0  0  0  0  0  2  0  0  0  0  0  0
    9.0710   -2.5780    2.7890 C   0  0  0  0  0  0  0  0  0  0  0  0
    9.5210   -3.2320    3.9400 C   0  0  0  0  0  3  0  0  0  0  0  0
   10.0760   -2.5000    4.9930 C   0  0  0  0  0  3  0  0  0  0  0  0
   10.1930   -1.1140    4.8910 C   0  0  0  0  0  0  0  0  0  0  0  0
    9.7140   -0.4490    3.7590 C   0  0  0  0  0  3  0  0  0  0  0  0
    9.1600   -1.1830    2.7080 C   0  0  0  0  0  3  0  0  0  0  0  0
   10.7340   -0.4540    5.9720 O   0  0  0  0  0  0  0  0  0  0  0  0
    9.8910    0.3570    6.7000 C   0  0  0  0  0  0  0  0  0  0  0  0
    8.8040   -0.1870    7.3980 C   0  0  0  0  0  3  0  0  0  0  0  0
    7.9330    0.6470    8.1000 C   0  0  0  0  0  3  0  0  0  0  0  0
    8.1320    2.0280    8.0940 C   0  0  0  0  0  3  0  0  0  0  0  0
    9.1980    2.5780    7.3790 C   0  0  0  0  0  3  0  0  0  0  0  0
   10.0730    1.7450    6.6750 C   0  0  0  0  0  0  0  0  0  0  0  0
   11.6450    2.6360    5.6200 I   0  0  0  0  0  0  0  0  0  0  0  0
   10.5630   -3.9620    0.6660 N   0  0  0  0  0  4  0  0  0  0  0  0
   11.4510   -3.2770   -0.1320 C   0  0  0  0  0  0  0  0  0  0  0  0
   12.6340   -3.6290   -0.1640 O   0  0  0  0  0  0  0  0  0  0  0  0
   11.0250   -4.6370    1.2590 H   0  0  0  0  0  0  0  0  0  0  0  0
   11.0700   -2.0560   -0.8740 C   0  0  0  0  0  0  0  0  0  0  0  0
   11.5790   -1.8690   -2.1640 C   0  0  0  0  0  3  0  0  0  0  0  0
   11.3040   -0.6920   -2.8620 C   0  0  0  0  0  3  0  0  0  0  0  0
   10.5340    0.3080   -2.2650 C   0  0  0  0  0  3  0  0  0  0  0  0
   10.0470    0.1350   -0.9680 C   0  0  0  0  0  3  0  0  0  0  0  0
   10.3270   -1.0390   -0.2650 C   0  0  0  0  0  3  0  0  0  0  0  0
    7.3270   -5.4210    0.2540 O   0  0  0  0  0  1  0  0  0  0  0  0
    8.2510   -4.7490   -0.2930 C   0  0  0  0  0  0  0  0  0  0  0  0
    8.5720   -4.6420   -1.5110 O   0  0  0  0  0  0  0  0  0  0  0  0
  1  2  1  0  0  0  0
  2  3  1  0  0  0  0
  3  4  1  0  0  0  0
  4  5  2  0  0  0  0
  6  5  1  0  0  0  0
  6  9  1  0  0  0  0
  7  6  2  0  0  0  0
  8  3  2  0  0  0  0
  8  7  1  0  0  0  0
  9 10  1  0  0  0  0
 10 11  1  0  0  0  0
 11 12  2  0  0  0  0
 13 12  1  0  0  0  0
 14 13  2  0  0  0  0
 15 10  2  0  0  0  0
 15 14  1  0  0  0  0
 16 15  1  0  0  0  0
 17  1  2  0  0  0  0
 17 20  1  0  0  0  0
 18 17  1  0  0  0  0
 19 18  2  0  0  0  0
 21 26  1  0  0  0  0
 21 18  1  0  0  0  0
 22 21  2  0  0  0  0
 23 24  2  0  0  0  0
 23 22  1  0  0  0  0
 24 25  1  0  0  0  0
 25 26  2  0  0  0  0
 28 27  1  0  0  0  0
 28  1  1  0  0  0  0
 29 28  2  0  0  0  0
M  END
>  <minimizedAffinity>
-7.43650198

$$$$
