
 OpenBabel09122219013D

 40 44  0  0  0  0  0  0  0  0999 V2000
    3.6320   -7.6390    3.4490 N   0  0  0  0  0  0  0  0  0  0  0  0
    4.1910   -6.4170    3.1410 C   0  0  0  0  0  0  0  0  0  0  0  0
    3.8500   -5.5150    4.1540 C   0  0  0  0  0  0  0  0  0  0  0  0
    3.0340   -6.2410    5.0940 C   0  0  0  0  0  0  0  0  0  0  0  0
    2.3630   -5.9330    6.2990 C   0  0  0  0  0  3  0  0  0  0  0  0
    1.6050   -6.9070    6.9690 C   0  0  0  0  0  3  0  0  0  0  0  0
    1.4900   -8.2060    6.4740 C   0  0  0  0  0  0  0  0  0  0  0  0
    2.1600   -8.5260    5.2890 C   0  0  0  0  0  3  0  0  0  0  0  0
    2.9120   -7.5480    4.6190 C   0  0  0  0  0  0  0  0  0  0  0  0
    4.8920   -6.1660    1.8880 C   0  0  0  0  0  0  0  0  0  0  0  0
    4.2150   -5.9780    0.6840 C   0  0  0  0  0  3  0  0  0  0  0  0
    4.9360   -5.7420   -0.4870 C   0  0  0  0  0  3  0  0  0  0  0  0
    6.3340   -5.7000   -0.4620 C   0  0  0  0  0  3  0  0  0  0  0  0
    7.0260   -5.8990    0.7400 C   0  0  0  0  0  0  0  0  0  0  0  0
    6.2880   -6.1300    1.9060 C   0  0  0  0  0  3  0  0  0  0  0  0
    8.5250   -5.8820    0.8150 C   0  0  0  0  0  2  0  0  0  0  0  0
    9.1510   -4.5040    0.8990 N   0  0  0  0  0  4  0  0  0  0  0  0
    9.3150   -3.8160   -0.4390 C   0  0  0  0  0  2  0  0  0  0  0  0
   10.1360   -2.5400   -0.2510 C   0  0  0  0  0  2  0  0  0  0  0  0
    9.5230   -1.5980    0.7880 C   0  0  0  0  0  2  0  0  0  0  0  0
    9.2860   -2.3130    2.1080 C   0  0  0  0  0  0  0  0  0  0  0  0
   10.4890   -2.6630    2.6390 F   0  0  0  0  0  0  0  0  0  0  0  0
    8.6800   -1.4950    2.9920 F   0  0  0  0  0  0  0  0  0  0  0  0
    8.4690   -3.5930    1.9160 C   0  0  0  0  0  2  0  0  0  0  0  0
   10.1030   -4.6740    1.2560 H   0  0  0  0  0  0  0  0  0  0  0  0
    4.2630   -4.0480    4.1630 C   0  0  0  0  0  3  0  0  0  0  0  0
    3.0930   -3.0630    4.0160 C   0  0  0  0  0  2  0  0  0  0  0  0
    2.5730   -2.4670    5.3170 C   0  0  0  0  0  2  0  0  0  0  0  0
    3.6980   -1.9540    6.2020 C   0  0  0  0  0  2  0  0  0  0  0  0
    4.7240   -3.0360    6.5070 C   0  0  0  0  0  2  0  0  0  0  0  0
    5.2900   -3.6750    5.2430 C   0  0  0  0  0  2  0  0  0  0  0  0
    0.6600   -9.2580    7.1830 C   0  0  0  0  0  0  0  0  0  0  0  0
   -0.4730   -9.5340    6.6690 O   0  0  0  0  0  0  0  0  0  0  0  0
    1.1510   -9.7760    8.2320 O   0  0  0  0  0  1  0  0  0  0  0  0
    3.8040   -8.8950    2.7130 C   0  0  0  0  0  2  0  0  0  0  0  0
    5.4070  -12.1110    4.0800 C   0  0  0  0  0  1  0  0  0  0  0  0
    4.3990  -11.1420    3.6770 N   0  0  0  0  0  0  0  0  0  0  0  0
    3.0580  -11.6890    3.4910 C   0  0  0  0  0  1  0  0  0  0  0  0
    4.7920   -9.8390    3.3950 C   0  0  0  0  0  0  0  0  0  0  0  0
    5.9170   -9.4320    3.7170 O   0  0  0  0  0  0  0  0  0  0  0  0
  1  9  1  0  0  0  0
  2  1  1  0  0  0  0
  2  3  2  0  0  0  0
  3 26  1  0  0  0  0
  3  4  1  0  0  0  0
  4  5  1  0  0  0  0
  5  6  2  0  0  0  0
  7  6  1  0  0  0  0
  7 32  1  0  0  0  0
  8  7  2  0  0  0  0
  9  4  2  0  0  0  0
  9  8  1  0  0  0  0
 10 15  1  0  0  0  0
 10  2  1  0  0  0  0
 11 10  2  0  0  0  0
 12 13  2  0  0  0  0
 12 11  1  0  0  0  0
 13 14  1  0  0  0  0
 14 16  1  0  0  0  0
 14 15  2  0  0  0  0
 16 17  1  0  0  0  0
 17 25  1  0  0  0  0
 17 24  1  0  0  0  0
 18 19  1  0  0  0  0
 18 17  1  0  0  0  0
 19 20  1  0  0  0  0
 20 21  1  0  0  0  0
 21 22  1  0  0  0  0
 21 23  1  0  0  0  0
 24 21  1  0  0  0  0
 26 31  1  0  0  0  0
 27 26  1  0  0  0  0
 27 28  1  0  0  0  0
 28 29  1  0  0  0  0
 29 30  1  0  0  0  0
 31 30  1  0  0  0  0
 32 34  1  0  0  0  0
 33 32  2  0  0  0  0
 35 39  1  0  0  0  0
 35  1  1  0  0  0  0
 37 36  1  0  0  0  0
 38 37  1  0  0  0  0
 39 37  1  0  0  0  0
 39 40  2  0  0  0  0
M  END
>  <minimizedAffinity>
-8.62137604

$$$$

 OpenBabel09122219013D

 40 44  0  0  0  0  0  0  0  0999 V2000
    3.7580   -8.4120    3.6820 N   0  0  0  0  0  0  0  0  0  0  0  0
    3.4080   -7.8010    4.8670 C   0  0  0  0  0  0  0  0  0  0  0  0
    3.6330   -6.4260    4.7320 C   0  0  0  0  0  0  0  0  0  0  0  0
    4.1600   -6.2250    3.4060 C   0  0  0  0  0  0  0  0  0  0  0  0
    4.6030   -5.1140    2.6520 C   0  0  0  0  0  3  0  0  0  0  0  0
    5.1000   -5.2810    1.3500 C   0  0  0  0  0  3  0  0  0  0  0  0
    5.1720   -6.5400    0.7550 C   0  0  0  0  0  0  0  0  0  0  0  0
    4.7240   -7.6460    1.4870 C   0  0  0  0  0  3  0  0  0  0  0  0
    4.2320   -7.4760    2.7900 C   0  0  0  0  0  0  0  0  0  0  0  0
    3.0050   -8.5520    6.0500 C   0  0  0  0  0  0  0  0  0  0  0  0
    3.9330   -9.0410    6.9690 C   0  0  0  0  0  3  0  0  0  0  0  0
    3.4920   -9.7550    8.0840 C   0  0  0  0  0  3  0  0  0  0  0  0
    2.1280   -9.9890    8.2820 C   0  0  0  0  0  3  0  0  0  0  0  0
    1.1870   -9.5110    7.3590 C   0  0  0  0  0  0  0  0  0  0  0  0
    1.6450   -8.7940    6.2500 C   0  0  0  0  0  3  0  0  0  0  0  0
   -0.2860   -9.7530    7.5180 C   0  0  0  0  0  2  0  0  0  0  0  0
   -1.1700   -9.0110    6.5360 N   0  0  0  0  0  4  0  0  0  0  0  0
   -2.1080   -9.9030    5.7500 C   0  0  0  0  0  2  0  0  0  0  0  0
   -2.7910   -9.0780    4.6600 C   0  0  0  0  0  2  0  0  0  0  0  0
   -3.5250   -7.8590    5.2220 C   0  0  0  0  0  2  0  0  0  0  0  0
   -2.6020   -7.0060    6.0760 C   0  0  0  0  0  0  0  0  0  0  0  0
   -1.6320   -6.4780    5.2810 F   0  0  0  0  0  0  0  0  0  0  0  0
   -3.2750   -5.9750    6.6240 F   0  0  0  0  0  0  0  0  0  0  0  0
   -1.9140   -7.8350    7.1630 C   0  0  0  0  0  2  0  0  0  0  0  0
   -0.5140   -8.6070    5.8520 H   0  0  0  0  0  0  0  0  0  0  0  0
    3.3870   -5.4100    5.8400 C   0  0  0  0  0  3  0  0  0  0  0  0
    4.6660   -4.7670    6.3990 C   0  0  0  0  0  2  0  0  0  0  0  0
    5.0130   -3.3990    5.8270 C   0  0  0  0  0  2  0  0  0  0  0  0
    3.8130   -2.4640    5.8100 C   0  0  0  0  0  2  0  0  0  0  0  0
    2.6370   -3.0580    5.0460 C   0  0  0  0  0  2  0  0  0  0  0  0
    2.2340   -4.4310    5.5720 C   0  0  0  0  0  2  0  0  0  0  0  0
    5.7230   -6.7310   -0.6450 C   0  0  0  0  0  0  0  0  0  0  0  0
    5.4470   -7.8330   -1.2210 O   0  0  0  0  0  0  0  0  0  0  0  0
    6.4180   -5.7870   -1.1290 O   0  0  0  0  0  1  0  0  0  0  0  0
    3.6030   -9.8290    3.3440 C   0  0  0  0  0  2  0  0  0  0  0  0
    5.6590  -12.7250    4.8160 C   0  0  0  0  0  1  0  0  0  0  0  0
    4.5720  -11.7820    4.6010 N   0  0  0  0  0  0  0  0  0  0  0  0
    3.2900  -12.1790    5.1740 C   0  0  0  0  0  1  0  0  0  0  0  0
    4.7940  -10.6690    3.7980 C   0  0  0  0  0  0  0  0  0  0  0  0
    5.9450  -10.3390    3.4750 O   0  0  0  0  0  0  0  0  0  0  0  0
  1  2  1  0  0  0  0
  2 10  1  0  0  0  0
  3  2  2  0  0  0  0
  3 26  1  0  0  0  0
  4  3  1  0  0  0  0
  5  4  2  0  0  0  0
  6  5  1  0  0  0  0
  7  6  2  0  0  0  0
  7  8  1  0  0  0  0
  8  9  2  0  0  0  0
  9  4  1  0  0  0  0
  9  1  1  0  0  0  0
 10 15  2  0  0  0  0
 10 11  1  0  0  0  0
 11 12  2  0  0  0  0
 12 13  1  0  0  0  0
 14 16  1  0  0  0  0
 14 13  2  0  0  0  0
 15 14  1  0  0  0  0
 17 24  1  0  0  0  0
 17 16  1  0  0  0  0
 18 17  1  0  0  0  0
 19 20  1  0  0  0  0
 19 18  1  0  0  0  0
 20 21  1  0  0  0  0
 21 23  1  0  0  0  0
 21 24  1  0  0  0  0
 22 21  1  0  0  0  0
 25 17  1  0  0  0  0
 26 27  1  0  0  0  0
 28 27  1  0  0  0  0
 29 28  1  0  0  0  0
 30 31  1  0  0  0  0
 30 29  1  0  0  0  0
 31 26  1  0  0  0  0
 32  7  1  0  0  0  0
 33 32  2  0  0  0  0
 34 32  1  0  0  0  0
 35  1  1  0  0  0  0
 35 39  1  0  0  0  0
 37 36  1  0  0  0  0
 37 38  1  0  0  0  0
 39 37  1  0  0  0  0
 40 39  2  0  0  0  0
M  END
>  <minimizedAffinity>
-8.52239895

$$$$

 OpenBabel09122219013D

 40 44  0  0  0  0  0  0  0  0999 V2000
    3.5120   -6.2800    4.2170 N   0  0  0  0  0  0  0  0  0  0  0  0
    3.0380   -7.3680    4.9190 C   0  0  0  0  0  0  0  0  0  0  0  0
    3.7070   -8.5080    4.4610 C   0  0  0  0  0  0  0  0  0  0  0  0
    4.6060   -8.0680    3.4240 C   0  0  0  0  0  0  0  0  0  0  0  0
    5.5330   -8.6910    2.5590 C   0  0  0  0  0  3  0  0  0  0  0  0
    6.2490   -7.9410    1.6110 C   0  0  0  0  0  3  0  0  0  0  0  0
    6.0730   -6.5630    1.4920 C   0  0  0  0  0  0  0  0  0  0  0  0
    5.1660   -5.9330    2.3510 C   0  0  0  0  0  3  0  0  0  0  0  0
    4.4490   -6.6860    3.2940 C   0  0  0  0  0  0  0  0  0  0  0  0
    1.9340   -7.2720    5.8670 C   0  0  0  0  0  0  0  0  0  0  0  0
    2.1440   -7.0880    7.2330 C   0  0  0  0  0  3  0  0  0  0  0  0
    1.0510   -7.0040    8.0970 C   0  0  0  0  0  3  0  0  0  0  0  0
   -0.2520   -7.1110    7.6010 C   0  0  0  0  0  3  0  0  0  0  0  0
   -0.4750   -7.3070    6.2320 C   0  0  0  0  0  0  0  0  0  0  0  0
    0.6310   -7.3840    5.3800 C   0  0  0  0  0  3  0  0  0  0  0  0
   -1.8540   -7.4460    5.6560 C   0  0  0  0  0  2  0  0  0  0  0  0
   -2.2550   -8.8570    5.2750 N   0  0  0  0  0  4  0  0  0  0  0  0
   -3.1100   -9.5570    6.3090 C   0  0  0  0  0  2  0  0  0  0  0  0
   -3.2750  -11.0250    5.9150 C   0  0  0  0  0  2  0  0  0  0  0  0
   -3.8550  -11.1910    4.5090 C   0  0  0  0  0  2  0  0  0  0  0  0
   -3.0400  -10.4220    3.4830 C   0  0  0  0  0  0  0  0  0  0  0  0
   -1.7990  -10.9760    3.4030 F   0  0  0  0  0  0  0  0  0  0  0  0
   -3.6000  -10.5170    2.2600 F   0  0  0  0  0  0  0  0  0  0  0  0
   -2.8710   -8.9550    3.8820 C   0  0  0  0  0  2  0  0  0  0  0  0
   -1.3660   -9.3760    5.2360 H   0  0  0  0  0  0  0  0  0  0  0  0
    3.4440   -9.9160    4.9800 C   0  0  0  0  0  3  0  0  0  0  0  0
    2.6790  -10.8160    3.9960 C   0  0  0  0  0  2  0  0  0  0  0  0
    3.5410  -11.7580    3.1670 C   0  0  0  0  0  2  0  0  0  0  0  0
    4.5560  -12.5050    4.0200 C   0  0  0  0  0  2  0  0  0  0  0  0
    5.4460  -11.5560    4.8110 C   0  0  0  0  0  2  0  0  0  0  0  0
    4.6440  -10.5840    5.6680 C   0  0  0  0  0  2  0  0  0  0  0  0
    6.8290   -5.7490    0.4600 C   0  0  0  0  0  0  0  0  0  0  0  0
    6.4010   -5.8070   -0.7380 O   0  0  0  0  0  0  0  0  0  0  0  0
    7.8300   -5.0820    0.8650 O   0  0  0  0  0  1  0  0  0  0  0  0
    3.1570   -4.8740    4.4280 C   0  0  0  0  0  2  0  0  0  0  0  0
    4.1640   -2.5310    7.3040 C   0  0  0  0  0  1  0  0  0  0  0  0
    3.5510   -3.0140    6.0770 N   0  0  0  0  0  0  0  0  0  0  0  0
    2.4430   -2.2040    5.5810 C   0  0  0  0  0  1  0  0  0  0  0  0
    3.9710   -4.2290    5.5470 C   0  0  0  0  0  0  0  0  0  0  0  0
    5.0100   -4.7730    5.9510 O   0  0  0  0  0  0  0  0  0  0  0  0
  1 35  1  0  0  0  0
  1  2  1  0  0  0  0
  2 10  1  0  0  0  0
  3  2  2  0  0  0  0
  3 26  1  0  0  0  0
  4  3  1  0  0  0  0
  5  4  2  0  0  0  0
  6  5  1  0  0  0  0
  7  6  2  0  0  0  0
  7  8  1  0  0  0  0
  8  9  2  0  0  0  0
  9  4  1  0  0  0  0
  9  1  1  0  0  0  0
 10 11  1  0  0  0  0
 11 12  2  0  0  0  0
 13 12  1  0  0  0  0
 14 13  2  0  0  0  0
 15 10  2  0  0  0  0
 15 14  1  0  0  0  0
 16 14  1  0  0  0  0
 17 16  1  0  0  0  0
 17 18  1  0  0  0  0
 19 18  1  0  0  0  0
 20 19  1  0  0  0  0
 21 24  1  0  0  0  0
 21 20  1  0  0  0  0
 22 21  1  0  0  0  0
 23 21  1  0  0  0  0
 24 17  1  0  0  0  0
 25 17  1  0  0  0  0
 26 31  1  0  0  0  0
 27 26  1  0  0  0  0
 28 27  1  0  0  0  0
 28 29  1  0  0  0  0
 29 30  1  0  0  0  0
 30 31  1  0  0  0  0
 32 34  1  0  0  0  0
 32  7  1  0  0  0  0
 33 32  2  0  0  0  0
 35 39  1  0  0  0  0
 37 36  1  0  0  0  0
 38 37  1  0  0  0  0
 39 40  2  0  0  0  0
 39 37  1  0  0  0  0
M  END
>  <minimizedAffinity>
-8.36569595

$$$$

 OpenBabel09122219013D

 40 44  0  0  0  0  0  0  0  0999 V2000
    4.6960   -8.4060    3.2180 N   0  0  0  0  0  0  0  0  0  0  0  0
    3.8870   -8.1040    4.2920 C   0  0  0  0  0  0  0  0  0  0  0  0
    3.8390   -6.7120    4.4230 C   0  0  0  0  0  0  0  0  0  0  0  0
    4.6790   -6.1720    3.3840 C   0  0  0  0  0  0  0  0  0  0  0  0
    5.0750   -4.8780    2.9750 C   0  0  0  0  0  3  0  0  0  0  0  0
    5.9600   -4.7040    1.8990 C   0  0  0  0  0  3  0  0  0  0  0  0
    6.4760   -5.7940    1.1980 C   0  0  0  0  0  0  0  0  0  0  0  0
    6.0810   -7.0790    1.5870 C   0  0  0  0  0  3  0  0  0  0  0  0
    5.2000   -7.2490    2.6660 C   0  0  0  0  0  0  0  0  0  0  0  0
    3.3240   -9.1270    5.1650 C   0  0  0  0  0  0  0  0  0  0  0  0
    4.0910   -9.7900    6.1210 C   0  0  0  0  0  3  0  0  0  0  0  0
    3.5010  -10.7630    6.9290 C   0  0  0  0  0  3  0  0  0  0  0  0
    2.1470  -11.0810    6.7810 C   0  0  0  0  0  3  0  0  0  0  0  0
    1.3680  -10.4280    5.8160 C   0  0  0  0  0  0  0  0  0  0  0  0
    1.9740   -9.4530    5.0170 C   0  0  0  0  0  3  0  0  0  0  0  0
   -0.0830  -10.7480    5.6070 C   0  0  0  0  0  2  0  0  0  0  0  0
   -0.9650   -9.5580    5.2790 N   0  0  0  0  0  4  0  0  0  0  0  0
   -2.1610   -9.8940    4.4140 C   0  0  0  0  0  2  0  0  0  0  0  0
   -2.8490   -8.5990    3.9830 C   0  0  0  0  0  2  0  0  0  0  0  0
   -3.2510   -7.7270    5.1750 C   0  0  0  0  0  2  0  0  0  0  0  0
   -2.0650   -7.4560    6.0850 C   0  0  0  0  0  0  0  0  0  0  0  0
   -1.1550   -6.7040    5.4090 F   0  0  0  0  0  0  0  0  0  0  0  0
   -2.4460   -6.7480    7.1680 F   0  0  0  0  0  0  0  0  0  0  0  0
   -1.3740   -8.7540    6.5100 C   0  0  0  0  0  2  0  0  0  0  0  0
   -0.3640   -8.9400    4.7160 H   0  0  0  0  0  0  0  0  0  0  0  0
    3.0610   -5.9860    5.5140 C   0  0  0  0  0  3  0  0  0  0  0  0
    3.9450   -5.3050    6.5710 C   0  0  0  0  0  2  0  0  0  0  0  0
    4.1830   -3.8150    6.3630 C   0  0  0  0  0  2  0  0  0  0  0  0
    2.8920   -3.0660    6.0680 C   0  0  0  0  0  2  0  0  0  0  0  0
    2.1590   -3.6420    4.8650 C   0  0  0  0  0  2  0  0  0  0  0  0
    1.8860   -5.1350    5.0090 C   0  0  0  0  0  2  0  0  0  0  0  0
    7.4450   -5.6150    0.0460 C   0  0  0  0  0  0  0  0  0  0  0  0
    8.6850   -5.6120    0.3390 O   0  0  0  0  0  1  0  0  0  0  0  0
    6.9500   -5.4760   -1.1140 O   0  0  0  0  0  0  0  0  0  0  0  0
    4.9600   -9.7360    2.6620 C   0  0  0  0  0  2  0  0  0  0  0  0
    1.9090  -11.7780    1.5190 C   0  0  0  0  0  1  0  0  0  0  0  0
    3.1630  -11.4280    2.1690 N   0  0  0  0  0  0  0  0  0  0  0  0
    3.5660  -12.3200    3.2520 C   0  0  0  0  0  1  0  0  0  0  0  0
    3.8040  -10.2490    1.8060 C   0  0  0  0  0  0  0  0  0  0  0  0
    3.4680   -9.6330    0.7840 O   0  0  0  0  0  0  0  0  0  0  0  0
  1  2  1  0  0  0  0
  2  3  2  0  0  0  0
  2 10  1  0  0  0  0
  3 26  1  0  0  0  0
  4  3  1  0  0  0  0
  5  4  1  0  0  0  0
  6  5  2  0  0  0  0
  7  8  2  0  0  0  0
  7  6  1  0  0  0  0
  8  9  1  0  0  0  0
  9  1  1  0  0  0  0
  9  4  2  0  0  0  0
 10 11  1  0  0  0  0
 11 12  2  0  0  0  0
 13 12  1  0  0  0  0
 14 13  2  0  0  0  0
 15 10  2  0  0  0  0
 15 14  1  0  0  0  0
 16 14  1  0  0  0  0
 17 16  1  0  0  0  0
 17 24  1  0  0  0  0
 18 17  1  0  0  0  0
 19 18  1  0  0  0  0
 19 20  1  0  0  0  0
 20 21  1  0  0  0  0
 21 24  1  0  0  0  0
 21 23  1  0  0  0  0
 22 21  1  0  0  0  0
 25 17  1  0  0  0  0
 26 27  1  0  0  0  0
 28 27  1  0  0  0  0
 29 28  1  0  0  0  0
 30 31  1  0  0  0  0
 30 29  1  0  0  0  0
 31 26  1  0  0  0  0
 32 33  1  0  0  0  0
 32  7  1  0  0  0  0
 34 32  2  0  0  0  0
 35  1  1  0  0  0  0
 36 37  1  0  0  0  0
 37 38  1  0  0  0  0
 39 37  1  0  0  0  0
 39 35  1  0  0  0  0
 40 39  2  0  0  0  0
M  END
>  <minimizedAffinity>
-8.31879234

$$$$

 OpenBabel09122219013D

 40 44  0  0  0  0  0  0  0  0999 V2000
    3.0790   -7.2270    4.6590 N   0  0  0  0  0  0  0  0  0  0  0  0
    3.5710   -7.9950    3.6260 C   0  0  0  0  0  0  0  0  0  0  0  0
    4.2870   -7.1580    2.7630 C   0  0  0  0  0  0  0  0  0  0  0  0
    4.1920   -5.8280    3.3090 C   0  0  0  0  0  0  0  0  0  0  0  0
    4.6590   -4.5470    2.9360 C   0  0  0  0  0  3  0  0  0  0  0  0
    4.3500   -3.4160    3.7090 C   0  0  0  0  0  3  0  0  0  0  0  0
    3.5800   -3.5160    4.8670 C   0  0  0  0  0  0  0  0  0  0  0  0
    3.1230   -4.7810    5.2530 C   0  0  0  0  0  3  0  0  0  0  0  0
    3.4290   -5.9080    4.4750 C   0  0  0  0  0  0  0  0  0  0  0  0
    3.2430   -9.4080    3.4700 C   0  0  0  0  0  0  0  0  0  0  0  0
    4.2230  -10.3780    3.2660 C   0  0  0  0  0  3  0  0  0  0  0  0
    3.8530  -11.7160    3.1220 C   0  0  0  0  0  3  0  0  0  0  0  0
    2.5060  -12.0880    3.1730 C   0  0  0  0  0  3  0  0  0  0  0  0
    1.5120  -11.1200    3.3670 C   0  0  0  0  0  0  0  0  0  0  0  0
    1.9000   -9.7840    3.5140 C   0  0  0  0  0  3  0  0  0  0  0  0
    0.0520  -11.4670    3.4110 C   0  0  0  0  0  2  0  0  0  0  0  0
   -0.8590  -10.3630    3.9120 N   0  0  0  0  0  4  0  0  0  0  0  0
   -2.3140  -10.5420    3.5350 C   0  0  0  0  0  2  0  0  0  0  0  0
   -3.0890   -9.2790    3.9110 C   0  0  0  0  0  2  0  0  0  0  0  0
   -2.9380   -8.9200    5.3910 C   0  0  0  0  0  2  0  0  0  0  0  0
   -1.4750   -8.8190    5.7870 C   0  0  0  0  0  0  0  0  0  0  0  0
   -0.9130   -7.7700    5.1270 F   0  0  0  0  0  0  0  0  0  0  0  0
   -1.3540   -8.5730    7.1070 F   0  0  0  0  0  0  0  0  0  0  0  0
   -0.7000  -10.0810    5.4040 C   0  0  0  0  0  2  0  0  0  0  0  0
   -0.5340   -9.5180    3.4220 H   0  0  0  0  0  0  0  0  0  0  0  0
    4.9670   -7.6340    1.4850 C   0  0  0  0  0  3  0  0  0  0  0  0
    4.2780   -7.1660    0.1940 C   0  0  0  0  0  2  0  0  0  0  0  0
    4.8880   -5.9360   -0.4640 C   0  0  0  0  0  2  0  0  0  0  0  0
    6.4020   -6.0400   -0.5790 C   0  0  0  0  0  2  0  0  0  0  0  0
    7.0620   -6.2820    0.7700 C   0  0  0  0  0  2  0  0  0  0  0  0
    6.4980   -7.5050    1.4840 C   0  0  0  0  0  2  0  0  0  0  0  0
    3.2280   -2.2970    5.6980 C   0  0  0  0  0  0  0  0  0  0  0  0
    2.0630   -1.8100    5.5320 O   0  0  0  0  0  0  0  0  0  0  0  0
    4.1190   -1.8540    6.4860 O   0  0  0  0  0  1  0  0  0  0  0  0
    2.3460   -7.7010    5.8360 C   0  0  0  0  0  2  0  0  0  0  0  0
    3.8030   -7.9430    9.3850 C   0  0  0  0  0  1  0  0  0  0  0  0
    3.1060   -7.4240    8.2190 N   0  0  0  0  0  0  0  0  0  0  0  0
    2.1810   -6.3280    8.4920 C   0  0  0  0  0  1  0  0  0  0  0  0
    3.2740   -8.0600    6.9940 C   0  0  0  0  0  0  0  0  0  0  0  0
    4.1820   -8.8860    6.8280 O   0  0  0  0  0  0  0  0  0  0  0  0
  1 35  1  0  0  0  0
  2  1  1  0  0  0  0
  3  4  1  0  0  0  0
  3  2  2  0  0  0  0
  4  9  1  0  0  0  0
  5  4  2  0  0  0  0
  5  6  1  0  0  0  0
  6  7  2  0  0  0  0
  7  8  1  0  0  0  0
  7 32  1  0  0  0  0
  9  1  1  0  0  0  0
  9  8  2  0  0  0  0
 10 15  1  0  0  0  0
 10  2  1  0  0  0  0
 11 10  2  0  0  0  0
 12 13  2  0  0  0  0
 12 11  1  0  0  0  0
 13 14  1  0  0  0  0
 14 16  1  0  0  0  0
 14 15  2  0  0  0  0
 16 17  1  0  0  0  0
 17 24  1  0  0  0  0
 18 19  1  0  0  0  0
 18 17  1  0  0  0  0
 19 20  1  0  0  0  0
 20 21  1  0  0  0  0
 21 23  1  0  0  0  0
 22 21  1  0  0  0  0
 24 21  1  0  0  0  0
 25 17  1  0  0  0  0
 26  3  1  0  0  0  0
 27 26  1  0  0  0  0
 28 27  1  0  0  0  0
 29 28  1  0  0  0  0
 29 30  1  0  0  0  0
 30 31  1  0  0  0  0
 31 26  1  0  0  0  0
 32 34  1  0  0  0  0
 33 32  2  0  0  0  0
 35 39  1  0  0  0  0
 37 38  1  0  0  0  0
 37 36  1  0  0  0  0
 39 37  1  0  0  0  0
 40 39  2  0  0  0  0
M  END
>  <minimizedAffinity>
-8.03251934

$$$$

 OpenBabel09122219013D

 40 44  0  0  0  0  0  0  0  0999 V2000
    3.6900   -6.8510    4.1180 N   0  0  0  0  0  0  0  0  0  0  0  0
    2.7180   -6.2600    4.8960 C   0  0  0  0  0  0  0  0  0  0  0  0
    1.7510   -7.2260    5.1950 C   0  0  0  0  0  0  0  0  0  0  0  0
    2.1690   -8.4410    4.5420 C   0  0  0  0  0  0  0  0  0  0  0  0
    1.6570   -9.7520    4.4230 C   0  0  0  0  0  3  0  0  0  0  0  0
    2.3290  -10.7210    3.6590 C   0  0  0  0  0  3  0  0  0  0  0  0
    3.5200  -10.4260    2.9970 C   0  0  0  0  0  0  0  0  0  0  0  0
    4.0440   -9.1340    3.1170 C   0  0  0  0  0  3  0  0  0  0  0  0
    3.3660   -8.1670    3.8770 C   0  0  0  0  0  0  0  0  0  0  0  0
    2.7120   -4.8330    5.1990 C   0  0  0  0  0  0  0  0  0  0  0  0
    2.2160   -3.8880    4.3030 C   0  0  0  0  0  3  0  0  0  0  0  0
    2.2360   -2.5340    4.6430 C   0  0  0  0  0  3  0  0  0  0  0  0
    2.7560   -2.1210    5.8740 C   0  0  0  0  0  3  0  0  0  0  0  0
    3.2670   -3.0610    6.7780 C   0  0  0  0  0  0  0  0  0  0  0  0
    3.2360   -4.4140    6.4230 C   0  0  0  0  0  3  0  0  0  0  0  0
    3.8520   -2.6650    8.1020 C   0  0  0  0  0  2  0  0  0  0  0  0
    3.3220   -3.4330    9.2970 N   0  0  0  0  0  4  0  0  0  0  0  0
    4.2860   -3.5090   10.4610 C   0  0  0  0  0  2  0  0  0  0  0  0
    3.7300   -4.4710   11.5120 C   0  0  0  0  0  2  0  0  0  0  0  0
    2.3260   -4.0790   11.9780 C   0  0  0  0  0  2  0  0  0  0  0  0
    1.3780   -3.9250   10.8000 C   0  0  0  0  0  0  0  0  0  0  0  0
    1.2100   -5.1390   10.2100 F   0  0  0  0  0  0  0  0  0  0  0  0
    0.1650   -3.5100   11.2160 F   0  0  0  0  0  0  0  0  0  0  0  0
    1.9400   -2.9670    9.7470 C   0  0  0  0  0  2  0  0  0  0  0  0
    3.2050   -4.3970    8.9540 H   0  0  0  0  0  0  0  0  0  0  0  0
    0.5010   -6.9530    6.0200 C   0  0  0  0  0  3  0  0  0  0  0  0
   -0.8060   -6.9800    5.2120 C   0  0  0  0  0  2  0  0  0  0  0  0
   -1.5860   -8.2870    5.2740 C   0  0  0  0  0  2  0  0  0  0  0  0
   -1.7360   -8.7960    6.7000 C   0  0  0  0  0  2  0  0  0  0  0  0
   -0.3910   -8.9670    7.3900 C   0  0  0  0  0  2  0  0  0  0  0  0
    0.4430   -7.6910    7.3670 C   0  0  0  0  0  2  0  0  0  0  0  0
    4.2420  -11.4610    2.1570 C   0  0  0  0  0  0  0  0  0  0  0  0
    3.7400  -11.7200    1.0150 O   0  0  0  0  0  0  0  0  0  0  0  0
    5.2820  -11.9910    2.6550 O   0  0  0  0  0  1  0  0  0  0  0  0
    4.9340   -6.2360    3.6480 C   0  0  0  0  0  2  0  0  0  0  0  0
    5.3460   -6.1710   -0.1740 C   0  0  0  0  0  1  0  0  0  0  0  0
    5.6190   -6.4210    1.2330 N   0  0  0  0  0  0  0  0  0  0  0  0
    6.6280   -7.4430    1.4930 C   0  0  0  0  0  1  0  0  0  0  0  0
    4.8450   -5.7790    2.1940 C   0  0  0  0  0  0  0  0  0  0  0  0
    4.1140   -4.8260    1.8870 O   0  0  0  0  0  0  0  0  0  0  0  0
  1  2  1  0  0  0  0
  2  3  2  0  0  0  0
  2 10  1  0  0  0  0
  3 26  1  0  0  0  0
  4  3  1  0  0  0  0
  5  4  1  0  0  0  0
  6  5  2  0  0  0  0
  7  8  2  0  0  0  0
  7  6  1  0  0  0  0
  8  9  1  0  0  0  0
  9  1  1  0  0  0  0
  9  4  2  0  0  0  0
 10 15  1  0  0  0  0
 11 12  1  0  0  0  0
 11 10  2  0  0  0  0
 12 13  2  0  0  0  0
 13 14  1  0  0  0  0
 14 16  1  0  0  0  0
 15 14  2  0  0  0  0
 16 17  1  0  0  0  0
 17 24  1  0  0  0  0
 17 18  1  0  0  0  0
 18 19  1  0  0  0  0
 19 20  1  0  0  0  0
 21 23  1  0  0  0  0
 21 20  1  0  0  0  0
 22 21  1  0  0  0  0
 24 21  1  0  0  0  0
 25 17  1  0  0  0  0
 26 31  1  0  0  0  0
 27 28  1  0  0  0  0
 27 26  1  0  0  0  0
 28 29  1  0  0  0  0
 29 30  1  0  0  0  0
 31 30  1  0  0  0  0
 32 34  1  0  0  0  0
 32  7  1  0  0  0  0
 33 32  2  0  0  0  0
 35  1  1  0  0  0  0
 36 37  1  0  0  0  0
 37 38  1  0  0  0  0
 37 39  1  0  0  0  0
 39 35  1  0  0  0  0
 40 39  2  0  0  0  0
M  END
>  <minimizedAffinity>
-8.02368736

$$$$

 OpenBabel09122219013D

 40 44  0  0  0  0  0  0  0  0999 V2000
    2.5210   -5.6140    7.9660 N   0  0  0  0  0  0  0  0  0  0  0  0
    2.1250   -5.7270    6.6510 C   0  0  0  0  0  0  0  0  0  0  0  0
    1.2430   -6.8090    6.5530 C   0  0  0  0  0  0  0  0  0  0  0  0
    1.1320   -7.3690    7.8760 C   0  0  0  0  0  0  0  0  0  0  0  0
    0.4400   -8.4550    8.4590 C   0  0  0  0  0  3  0  0  0  0  0  0
    0.5830   -8.7490    9.8240 C   0  0  0  0  0  3  0  0  0  0  0  0
    1.4050   -7.9840   10.6500 C   0  0  0  0  0  0  0  0  0  0  0  0
    2.0860   -6.8990   10.0870 C   0  0  0  0  0  3  0  0  0  0  0  0
    1.9440   -6.6110    8.7210 C   0  0  0  0  0  0  0  0  0  0  0  0
    2.6810   -4.8990    5.5870 C   0  0  0  0  0  0  0  0  0  0  0  0
    2.0430   -3.7450    5.1360 C   0  0  0  0  0  3  0  0  0  0  0  0
    2.6200   -2.9890    4.1140 C   0  0  0  0  0  3  0  0  0  0  0  0
    3.8290   -3.3880    3.5350 C   0  0  0  0  0  3  0  0  0  0  0  0
    4.4730   -4.5520    3.9730 C   0  0  0  0  0  0  0  0  0  0  0  0
    3.8850   -5.2950    5.0010 C   0  0  0  0  0  3  0  0  0  0  0  0
    5.7620   -5.0310    3.3700 C   0  0  0  0  0  2  0  0  0  0  0  0
    5.7210   -5.2830    1.8750 N   0  0  0  0  0  4  0  0  0  0  0  0
    7.0690   -5.5950    1.2630 C   0  0  0  0  0  2  0  0  0  0  0  0
    6.9350   -5.6240   -0.2600 C   0  0  0  0  0  2  0  0  0  0  0  0
    5.8660   -6.6110   -0.7340 C   0  0  0  0  0  2  0  0  0  0  0  0
    4.5320   -6.3450   -0.0580 C   0  0  0  0  0  0  0  0  0  0  0  0
    4.0700   -5.1300   -0.4610 F   0  0  0  0  0  0  0  0  0  0  0  0
    3.6180   -7.2640   -0.4280 F   0  0  0  0  0  0  0  0  0  0  0  0
    4.6700   -6.3110    1.4660 C   0  0  0  0  0  2  0  0  0  0  0  0
    5.4200   -4.3840    1.4710 H   0  0  0  0  0  0  0  0  0  0  0  0
    0.6020   -7.2700    5.2500 C   0  0  0  0  0  3  0  0  0  0  0  0
    1.0630   -8.6580    4.7790 C   0  0  0  0  0  2  0  0  0  0  0  0
    0.1310   -9.8100    5.1300 C   0  0  0  0  0  2  0  0  0  0  0  0
   -1.3190   -9.4970    4.7910 C   0  0  0  0  0  2  0  0  0  0  0  0
   -1.8010   -8.2210    5.4670 C   0  0  0  0  0  2  0  0  0  0  0  0
   -0.9110   -7.0240    5.1540 C   0  0  0  0  0  2  0  0  0  0  0  0
    1.5780   -8.3050   12.1220 C   0  0  0  0  0  0  0  0  0  0  0  0
    2.0590   -7.3810   12.8550 O   0  0  0  0  0  1  0  0  0  0  0  0
    1.2390   -9.4660   12.5070 O   0  0  0  0  0  0  0  0  0  0  0  0
    3.3700   -4.5680    8.5420 C   0  0  0  0  0  2  0  0  0  0  0  0
    2.1820   -0.9300    8.1700 C   0  0  0  0  0  1  0  0  0  0  0  0
    3.0440   -2.1020    8.1560 N   0  0  0  0  0  0  0  0  0  0  0  0
    4.2600   -1.9640    7.3600 C   0  0  0  0  0  1  0  0  0  0  0  0
    2.6100   -3.2660    8.7820 C   0  0  0  0  0  0  0  0  0  0  0  0
    1.6380   -3.2480    9.5510 O   0  0  0  0  0  0  0  0  0  0  0  0
  1 35  1  0  0  0  0
  1  9  1  0  0  0  0
  2  1  1  0  0  0  0
  3  2  2  0  0  0  0
  3  4  1  0  0  0  0
  4  5  2  0  0  0  0
  4  9  1  0  0  0  0
  5  6  1  0  0  0  0
  6  7  2  0  0  0  0
  7 32  1  0  0  0  0
  8  7  1  0  0  0  0
  9  8  2  0  0  0  0
 10  2  1  0  0  0  0
 11 10  1  0  0  0  0
 12 11  2  0  0  0  0
 13 14  2  0  0  0  0
 13 12  1  0  0  0  0
 14 15  1  0  0  0  0
 15 10  2  0  0  0  0
 16 14  1  0  0  0  0
 17 16  1  0  0  0  0
 18 17  1  0  0  0  0
 19 18  1  0  0  0  0
 20 19  1  0  0  0  0
 20 21  1  0  0  0  0
 21 24  1  0  0  0  0
 22 21  1  0  0  0  0
 23 21  1  0  0  0  0
 24 17  1  0  0  0  0
 25 17  1  0  0  0  0
 26  3  1  0  0  0  0
 27 28  1  0  0  0  0
 27 26  1  0  0  0  0
 29 28  1  0  0  0  0
 29 30  1  0  0  0  0
 31 26  1  0  0  0  0
 31 30  1  0  0  0  0
 32 34  2  0  0  0  0
 32 33  1  0  0  0  0
 35 39  1  0  0  0  0
 37 36  1  0  0  0  0
 37 39  1  0  0  0  0
 38 37  1  0  0  0  0
 39 40  2  0  0  0  0
M  END
>  <minimizedAffinity>
-8.02315331

$$$$

 OpenBabel09122219013D

 40 44  0  0  0  0  0  0  0  0999 V2000
    3.4160   -7.1430    4.9110 N   0  0  0  0  0  0  0  0  0  0  0  0
    3.7120   -5.9950    4.2070 C   0  0  0  0  0  0  0  0  0  0  0  0
    4.4510   -6.3570    3.0750 C   0  0  0  0  0  0  0  0  0  0  0  0
    4.6130   -7.7880    3.1300 C   0  0  0  0  0  0  0  0  0  0  0  0
    5.2510   -8.7640    2.3330 C   0  0  0  0  0  3  0  0  0  0  0  0
    5.2380  -10.1190    2.7050 C   0  0  0  0  0  3  0  0  0  0  0  0
    4.5950  -10.5460    3.8660 C   0  0  0  0  0  0  0  0  0  0  0  0
    3.9480   -9.5910    4.6570 C   0  0  0  0  0  3  0  0  0  0  0  0
    3.9690   -8.2370    4.2850 C   0  0  0  0  0  0  0  0  0  0  0  0
    3.3830   -4.6630    4.7000 C   0  0  0  0  0  0  0  0  0  0  0  0
    2.2000   -4.0150    4.3500 C   0  0  0  0  0  3  0  0  0  0  0  0
    1.9360   -2.7380    4.8490 C   0  0  0  0  0  3  0  0  0  0  0  0
    2.8540   -2.1030    5.6910 C   0  0  0  0  0  3  0  0  0  0  0  0
    4.0520   -2.7410    6.0410 C   0  0  0  0  0  0  0  0  0  0  0  0
    4.2990   -4.0220    5.5360 C   0  0  0  0  0  3  0  0  0  0  0  0
    5.0770   -2.0930    6.9260 C   0  0  0  0  0  2  0  0  0  0  0  0
    4.6370   -1.8590    8.3580 N   0  0  0  0  0  4  0  0  0  0  0  0
    3.8240   -0.5970    8.5570 C   0  0  0  0  0  2  0  0  0  0  0  0
    3.6190   -0.3630   10.0530 C   0  0  0  0  0  2  0  0  0  0  0  0
    2.9660   -1.5600   10.7480 C   0  0  0  0  0  2  0  0  0  0  0  0
    3.7390   -2.8400   10.4810 C   0  0  0  0  0  0  0  0  0  0  0  0
    4.9650   -2.7420   11.0630 F   0  0  0  0  0  0  0  0  0  0  0  0
    3.1150   -3.8990   11.0380 F   0  0  0  0  0  0  0  0  0  0  0  0
    3.9490   -3.0700    8.9830 C   0  0  0  0  0  2  0  0  0  0  0  0
    5.5150   -1.7240    8.8790 H   0  0  0  0  0  0  0  0  0  0  0  0
    4.9860   -5.3620    2.0540 C   0  0  0  0  0  3  0  0  0  0  0  0
    6.5120   -5.1790    2.0920 C   0  0  0  0  0  2  0  0  0  0  0  0
    7.2920   -5.9830    1.0610 C   0  0  0  0  0  2  0  0  0  0  0  0
    6.6950   -5.8600   -0.3320 C   0  0  0  0  0  2  0  0  0  0  0  0
    5.2290   -6.2700   -0.3640 C   0  0  0  0  0  2  0  0  0  0  0  0
    4.3870   -5.4980    0.6460 C   0  0  0  0  0  2  0  0  0  0  0  0
    4.5900  -12.0040    4.2840 C   0  0  0  0  0  0  0  0  0  0  0  0
    5.6850  -12.6400    4.1480 O   0  0  0  0  0  0  0  0  0  0  0  0
    3.5000  -12.4780    4.7270 O   0  0  0  0  0  1  0  0  0  0  0  0
    2.5850   -7.2470    6.1140 C   0  0  0  0  0  2  0  0  0  0  0  0
    3.9150   -8.8790    9.3310 C   0  0  0  0  0  1  0  0  0  0  0  0
    3.0020   -8.4660    8.2760 N   0  0  0  0  0  0  0  0  0  0  0  0
    1.7600   -9.2290    8.2020 C   0  0  0  0  0  1  0  0  0  0  0  0
    3.4120   -7.4900    7.3740 C   0  0  0  0  0  0  0  0  0  0  0  0
    4.4170   -6.8000    7.5990 O   0  0  0  0  0  0  0  0  0  0  0  0
  1 35  1  0  0  0  0
  2 10  1  0  0  0  0
  2  1  1  0  0  0  0
  3  4  1  0  0  0  0
  3  2  2  0  0  0  0
  4  9  1  0  0  0  0
  5  6  1  0  0  0  0
  5  4  2  0  0  0  0
  6  7  2  0  0  0  0
  7 32  1  0  0  0  0
  7  8  1  0  0  0  0
  9  8  2  0  0  0  0
  9  1  1  0  0  0  0
 10 15  1  0  0  0  0
 11 10  2  0  0  0  0
 11 12  1  0  0  0  0
 12 13  2  0  0  0  0
 13 14  1  0  0  0  0
 14 16  1  0  0  0  0
 15 14  2  0  0  0  0
 16 17  1  0  0  0  0
 17 18  1  0  0  0  0
 17 25  1  0  0  0  0
 17 24  1  0  0  0  0
 18 19  1  0  0  0  0
 19 20  1  0  0  0  0
 21 20  1  0  0  0  0
 21 23  1  0  0  0  0
 21 22  1  0  0  0  0
 24 21  1  0  0  0  0
 26 27  1  0  0  0  0
 26  3  1  0  0  0  0
 28 27  1  0  0  0  0
 29 28  1  0  0  0  0
 30 29  1  0  0  0  0
 30 31  1  0  0  0  0
 31 26  1  0  0  0  0
 32 34  1  0  0  0  0
 33 32  2  0  0  0  0
 35 39  1  0  0  0  0
 37 36  1  0  0  0  0
 38 37  1  0  0  0  0
 39 40  2  0  0  0  0
 39 37  1  0  0  0  0
M  END
>  <minimizedAffinity>
-7.98019552

$$$$

 OpenBabel09122219013D

 40 44  0  0  0  0  0  0  0  0999 V2000
    3.5750   -6.3230    4.0900 N   0  0  0  0  0  0  0  0  0  0  0  0
    3.1190   -7.4170    4.7940 C   0  0  0  0  0  0  0  0  0  0  0  0
    3.8320   -8.5410    4.3620 C   0  0  0  0  0  0  0  0  0  0  0  0
    4.7380   -8.0840    3.3390 C   0  0  0  0  0  0  0  0  0  0  0  0
    5.7020   -8.6880    2.5010 C   0  0  0  0  0  3  0  0  0  0  0  0
    6.4150   -7.9260    1.5600 C   0  0  0  0  0  3  0  0  0  0  0  0
    6.2000   -6.5560    1.4220 C   0  0  0  0  0  0  0  0  0  0  0  0
    5.2570   -5.9450    2.2560 C   0  0  0  0  0  3  0  0  0  0  0  0
    4.5430   -6.7100    3.1910 C   0  0  0  0  0  0  0  0  0  0  0  0
    1.9930   -7.3450    5.7180 C   0  0  0  0  0  0  0  0  0  0  0  0
    0.6710   -7.4270    5.2830 C   0  0  0  0  0  3  0  0  0  0  0  0
   -0.3690   -7.3500    6.2100 C   0  0  0  0  0  3  0  0  0  0  0  0
   -0.0940   -7.1850    7.5710 C   0  0  0  0  0  3  0  0  0  0  0  0
    1.2310   -7.0910    8.0190 C   0  0  0  0  0  0  0  0  0  0  0  0
    2.2610   -7.1740    7.0770 C   0  0  0  0  0  3  0  0  0  0  0  0
    1.5760   -6.8950    9.4660 C   0  0  0  0  0  2  0  0  0  0  0  0
    1.3770   -5.4870    9.9920 N   0  0  0  0  0  4  0  0  0  0  0  0
    0.7590   -5.4240   11.3730 C   0  0  0  0  0  2  0  0  0  0  0  0
    0.4190   -3.9710   11.7050 C   0  0  0  0  0  2  0  0  0  0  0  0
    1.6340   -3.0460   11.5950 C   0  0  0  0  0  2  0  0  0  0  0  0
    2.2990   -3.1700   10.2350 C   0  0  0  0  0  0  0  0  0  0  0  0
    1.4410   -2.7130    9.2830 F   0  0  0  0  0  0  0  0  0  0  0  0
    3.4090   -2.4060   10.1750 F   0  0  0  0  0  0  0  0  0  0  0  0
    2.6330   -4.6260    9.9020 C   0  0  0  0  0  2  0  0  0  0  0  0
    0.6910   -5.0660    9.3490 H   0  0  0  0  0  0  0  0  0  0  0  0
    3.6000   -9.9510    4.8910 C   0  0  0  0  0  3  0  0  0  0  0  0
    2.9140  -10.8930    3.8890 C   0  0  0  0  0  2  0  0  0  0  0  0
    3.8480  -11.8130    3.1130 C   0  0  0  0  0  2  0  0  0  0  0  0
    4.8520  -12.5080    4.0210 C   0  0  0  0  0  2  0  0  0  0  0  0
    5.6690  -11.5140    4.8350 C   0  0  0  0  0  2  0  0  0  0  0  0
    4.7930  -10.5620    5.6410 C   0  0  0  0  0  2  0  0  0  0  0  0
    6.9540   -5.7300    0.3980 C   0  0  0  0  0  0  0  0  0  0  0  0
    7.9590   -5.0730    0.8220 O   0  0  0  0  0  1  0  0  0  0  0  0
    6.5230   -5.7510   -0.7960 O   0  0  0  0  0  0  0  0  0  0  0  0
    3.1730   -4.9260    4.2780 C   0  0  0  0  0  2  0  0  0  0  0  0
    4.2340   -2.4530    7.0240 C   0  0  0  0  0  1  0  0  0  0  0  0
    3.5770   -3.0000    5.8470 N   0  0  0  0  0  0  0  0  0  0  0  0
    2.4100   -2.2520    5.3890 C   0  0  0  0  0  1  0  0  0  0  0  0
    4.0180   -4.2140    5.3310 C   0  0  0  0  0  0  0  0  0  0  0  0
    5.0980   -4.7020    5.6930 O   0  0  0  0  0  0  0  0  0  0  0  0
  1 35  1  0  0  0  0
  1  2  1  0  0  0  0
  2 10  1  0  0  0  0
  3  2  2  0  0  0  0
  3 26  1  0  0  0  0
  4  3  1  0  0  0  0
  5  4  2  0  0  0  0
  6  5  1  0  0  0  0
  7  6  2  0  0  0  0
  7  8  1  0  0  0  0
  8  9  2  0  0  0  0
  9  4  1  0  0  0  0
  9  1  1  0  0  0  0
 10 15  1  0  0  0  0
 11 10  2  0  0  0  0
 11 12  1  0  0  0  0
 12 13  2  0  0  0  0
 13 14  1  0  0  0  0
 14 16  1  0  0  0  0
 15 14  2  0  0  0  0
 16 17  1  0  0  0  0
 17 18  1  0  0  0  0
 18 19  1  0  0  0  0
 20 19  1  0  0  0  0
 21 20  1  0  0  0  0
 22 21  1  0  0  0  0
 23 21  1  0  0  0  0
 24 17  1  0  0  0  0
 24 21  1  0  0  0  0
 25 17  1  0  0  0  0
 26 31  1  0  0  0  0
 27 26  1  0  0  0  0
 28 27  1  0  0  0  0
 28 29  1  0  0  0  0
 29 30  1  0  0  0  0
 30 31  1  0  0  0  0
 32 33  1  0  0  0  0
 32  7  1  0  0  0  0
 34 32  2  0  0  0  0
 35 39  1  0  0  0  0
 37 36  1  0  0  0  0
 38 37  1  0  0  0  0
 39 40  2  0  0  0  0
 39 37  1  0  0  0  0
M  END
>  <minimizedAffinity>
-7.96832514

$$$$

 OpenBabel09122219013D

 40 44  0  0  0  0  0  0  0  0999 V2000
    3.4960   -8.4370    3.4030 N   0  0  0  0  0  0  0  0  0  0  0  0
    3.0510   -7.8620    4.5750 C   0  0  0  0  0  0  0  0  0  0  0  0
    3.3080   -6.4880    4.5110 C   0  0  0  0  0  0  0  0  0  0  0  0
    3.9530   -6.2490    3.2450 C   0  0  0  0  0  0  0  0  0  0  0  0
    4.4780   -5.1210    2.5750 C   0  0  0  0  0  3  0  0  0  0  0  0
    5.0880   -5.2500    1.3170 C   0  0  0  0  0  3  0  0  0  0  0  0
    5.1930   -6.4890    0.6850 C   0  0  0  0  0  0  0  0  0  0  0  0
    4.6660   -7.6110    1.3320 C   0  0  0  0  0  3  0  0  0  0  0  0
    4.0630   -7.4790    2.5930 C   0  0  0  0  0  0  0  0  0  0  0  0
    2.5330   -8.6470    5.6890 C   0  0  0  0  0  0  0  0  0  0  0  0
    1.1690   -8.8660    5.8710 C   0  0  0  0  0  3  0  0  0  0  0  0
    0.7280   -9.6250    6.9560 C   0  0  0  0  0  3  0  0  0  0  0  0
    1.6450  -10.1590    7.8660 C   0  0  0  0  0  3  0  0  0  0  0  0
    3.0190   -9.9370    7.7000 C   0  0  0  0  0  0  0  0  0  0  0  0
    3.4440   -9.1780    6.6040 C   0  0  0  0  0  3  0  0  0  0  0  0
    4.0400  -10.4740    8.6590 C   0  0  0  0  0  2  0  0  0  0  0  0
    3.8610  -10.0410   10.1010 N   0  0  0  0  0  4  0  0  0  0  0  0
    4.6690  -10.8480   11.0950 C   0  0  0  0  0  2  0  0  0  0  0  0
    4.2520  -10.4620   12.5140 C   0  0  0  0  0  2  0  0  0  0  0  0
    4.3890   -8.9600   12.7740 C   0  0  0  0  0  2  0  0  0  0  0  0
    3.6430   -8.1480   11.7290 C   0  0  0  0  0  0  0  0  0  0  0  0
    2.3100   -8.3910   11.8550 F   0  0  0  0  0  0  0  0  0  0  0  0
    3.8300   -6.8280   11.9260 F   0  0  0  0  0  0  0  0  0  0  0  0
    4.0570   -8.5420   10.3100 C   0  0  0  0  0  2  0  0  0  0  0  0
    2.8710  -10.2350   10.3070 H   0  0  0  0  0  0  0  0  0  0  0  0
    2.9780   -5.5080    5.6290 C   0  0  0  0  0  3  0  0  0  0  0  0
    4.2070   -4.9880    6.3930 C   0  0  0  0  0  2  0  0  0  0  0  0
    4.7230   -3.6260    5.9500 C   0  0  0  0  0  2  0  0  0  0  0  0
    3.6040   -2.6040    5.8210 C   0  0  0  0  0  2  0  0  0  0  0  0
    2.5100   -3.0720    4.8720 C   0  0  0  0  0  2  0  0  0  0  0  0
    1.9440   -4.4330    5.2610 C   0  0  0  0  0  2  0  0  0  0  0  0
    5.8650   -6.6390   -0.6670 C   0  0  0  0  0  0  0  0  0  0  0  0
    5.5950   -7.6980   -1.3230 O   0  0  0  0  0  0  0  0  0  0  0  0
    6.6440   -5.7090   -1.0350 O   0  0  0  0  0  1  0  0  0  0  0  0
    3.3520   -9.8390    3.0010 C   0  0  0  0  0  2  0  0  0  0  0  0
    5.3730  -12.7910    4.4090 C   0  0  0  0  0  1  0  0  0  0  0  0
    4.2930  -11.8380    4.2060 N   0  0  0  0  0  0  0  0  0  0  0  0
    2.9980  -12.2520    4.7380 C   0  0  0  0  0  1  0  0  0  0  0  0
    4.5330  -10.6970    3.4480 C   0  0  0  0  0  0  0  0  0  0  0  0
    5.6900  -10.3590    3.1600 O   0  0  0  0  0  0  0  0  0  0  0  0
  1  2  1  0  0  0  0
  2 10  1  0  0  0  0
  3  2  2  0  0  0  0
  3 26  1  0  0  0  0
  4  3  1  0  0  0  0
  5  4  2  0  0  0  0
  6  5  1  0  0  0  0
  7  6  2  0  0  0  0
  7  8  1  0  0  0  0
  8  9  2  0  0  0  0
  9  4  1  0  0  0  0
  9  1  1  0  0  0  0
 10 11  2  0  0  0  0
 10 15  1  0  0  0  0
 11 12  1  0  0  0  0
 12 13  2  0  0  0  0
 14 13  1  0  0  0  0
 14 16  1  0  0  0  0
 15 14  2  0  0  0  0
 16 17  1  0  0  0  0
 17 25  1  0  0  0  0
 17 24  1  0  0  0  0
 17 18  1  0  0  0  0
 18 19  1  0  0  0  0
 19 20  1  0  0  0  0
 21 22  1  0  0  0  0
 21 23  1  0  0  0  0
 21 20  1  0  0  0  0
 24 21  1  0  0  0  0
 26 27  1  0  0  0  0
 28 27  1  0  0  0  0
 29 28  1  0  0  0  0
 30 31  1  0  0  0  0
 30 29  1  0  0  0  0
 31 26  1  0  0  0  0
 32  7  1  0  0  0  0
 33 32  2  0  0  0  0
 34 32  1  0  0  0  0
 35  1  1  0  0  0  0
 35 39  1  0  0  0  0
 37 36  1  0  0  0  0
 37 38  1  0  0  0  0
 39 37  1  0  0  0  0
 40 39  2  0  0  0  0
M  END
>  <minimizedAffinity>
-7.91548014

$$$$
