
 OpenBabel09122222393D

 40 44  0  0  0  0  0  0  0  0999 V2000
    2.5210   -5.6140    7.9660 N   0  0  0  0  0  0  0  0  0  0  0  0
    2.1250   -5.7270    6.6510 C   0  0  0  0  0  0  0  0  0  0  0  0
    1.2430   -6.8090    6.5530 C   0  0  0  0  0  0  0  0  0  0  0  0
    1.1320   -7.3690    7.8760 C   0  0  0  0  0  0  0  0  0  0  0  0
    0.4400   -8.4550    8.4590 C   0  0  0  0  0  3  0  0  0  0  0  0
    0.5830   -8.7490    9.8240 C   0  0  0  0  0  3  0  0  0  0  0  0
    1.4050   -7.9840   10.6500 C   0  0  0  0  0  0  0  0  0  0  0  0
    2.0860   -6.8990   10.0870 C   0  0  0  0  0  3  0  0  0  0  0  0
    1.9440   -6.6110    8.7210 C   0  0  0  0  0  0  0  0  0  0  0  0
    2.6810   -4.8990    5.5870 C   0  0  0  0  0  0  0  0  0  0  0  0
    2.0430   -3.7450    5.1360 C   0  0  0  0  0  3  0  0  0  0  0  0
    2.6200   -2.9890    4.1140 C   0  0  0  0  0  3  0  0  0  0  0  0
    3.8290   -3.3880    3.5350 C   0  0  0  0  0  3  0  0  0  0  0  0
    4.4730   -4.5520    3.9730 C   0  0  0  0  0  0  0  0  0  0  0  0
    3.8850   -5.2950    5.0010 C   0  0  0  0  0  3  0  0  0  0  0  0
    5.7620   -5.0310    3.3700 C   0  0  0  0  0  2  0  0  0  0  0  0
    5.7210   -5.2830    1.8750 N   0  0  0  0  0  4  0  0  0  0  0  0
    7.0690   -5.5950    1.2630 C   0  0  0  0  0  2  0  0  0  0  0  0
    6.9350   -5.6240   -0.2600 C   0  0  0  0  0  2  0  0  0  0  0  0
    5.8660   -6.6110   -0.7340 C   0  0  0  0  0  2  0  0  0  0  0  0
    4.5320   -6.3450   -0.0580 C   0  0  0  0  0  0  0  0  0  0  0  0
    4.0700   -5.1300   -0.4610 F   0  0  0  0  0  0  0  0  0  0  0  0
    3.6180   -7.2640   -0.4280 F   0  0  0  0  0  0  0  0  0  0  0  0
    4.6700   -6.3110    1.4660 C   0  0  0  0  0  2  0  0  0  0  0  0
    5.4200   -4.3840    1.4710 H   0  0  0  0  0  0  0  0  0  0  0  0
    0.6020   -7.2700    5.2500 C   0  0  0  0  0  3  0  0  0  0  0  0
    1.0630   -8.6580    4.7790 C   0  0  0  0  0  2  0  0  0  0  0  0
    0.1310   -9.8100    5.1300 C   0  0  0  0  0  2  0  0  0  0  0  0
   -1.3190   -9.4970    4.7910 C   0  0  0  0  0  2  0  0  0  0  0  0
   -1.8010   -8.2210    5.4670 C   0  0  0  0  0  2  0  0  0  0  0  0
   -0.9110   -7.0240    5.1540 C   0  0  0  0  0  2  0  0  0  0  0  0
    1.5780   -8.3050   12.1220 C   0  0  0  0  0  0  0  0  0  0  0  0
    2.0590   -7.3810   12.8550 O   0  0  0  0  0  1  0  0  0  0  0  0
    1.2390   -9.4660   12.5070 O   0  0  0  0  0  0  0  0  0  0  0  0
    3.3700   -4.5680    8.5420 C   0  0  0  0  0  2  0  0  0  0  0  0
    2.1820   -0.9300    8.1700 C   0  0  0  0  0  1  0  0  0  0  0  0
    3.0440   -2.1020    8.1560 N   0  0  0  0  0  0  0  0  0  0  0  0
    4.2600   -1.9640    7.3600 C   0  0  0  0  0  1  0  0  0  0  0  0
    2.6100   -3.2660    8.7820 C   0  0  0  0  0  0  0  0  0  0  0  0
    1.6380   -3.2480    9.5510 O   0  0  0  0  0  0  0  0  0  0  0  0
  1 35  1  0  0  0  0
  1  9  1  0  0  0  0
  2  1  1  0  0  0  0
  3  2  2  0  0  0  0
  3  4  1  0  0  0  0
  4  5  2  0  0  0  0
  4  9  1  0  0  0  0
  5  6  1  0  0  0  0
  6  7  2  0  0  0  0
  7 32  1  0  0  0  0
  8  7  1  0  0  0  0
  9  8  2  0  0  0  0
 10  2  1  0  0  0  0
 11 10  1  0  0  0  0
 12 11  2  0  0  0  0
 13 14  2  0  0  0  0
 13 12  1  0  0  0  0
 14 15  1  0  0  0  0
 15 10  2  0  0  0  0
 16 14  1  0  0  0  0
 17 16  1  0  0  0  0
 18 17  1  0  0  0  0
 19 18  1  0  0  0  0
 20 19  1  0  0  0  0
 20 21  1  0  0  0  0
 21 24  1  0  0  0  0
 22 21  1  0  0  0  0
 23 21  1  0  0  0  0
 24 17  1  0  0  0  0
 25 17  1  0  0  0  0
 26  3  1  0  0  0  0
 27 28  1  0  0  0  0
 27 26  1  0  0  0  0
 29 28  1  0  0  0  0
 29 30  1  0  0  0  0
 31 26  1  0  0  0  0
 31 30  1  0  0  0  0
 32 34  2  0  0  0  0
 32 33  1  0  0  0  0
 35 39  1  0  0  0  0
 37 36  1  0  0  0  0
 37 39  1  0  0  0  0
 38 37  1  0  0  0  0
 39 40  2  0  0  0  0
M  END
>  <minimizedAffinity>
-8.02315331

$$$$
