
 OpenBabel09122222393D

 40 44  0  0  0  0  0  0  0  0999 V2000
    3.6900   -6.8510    4.1180 N   0  0  0  0  0  0  0  0  0  0  0  0
    2.7180   -6.2600    4.8960 C   0  0  0  0  0  0  0  0  0  0  0  0
    1.7510   -7.2260    5.1950 C   0  0  0  0  0  0  0  0  0  0  0  0
    2.1690   -8.4410    4.5420 C   0  0  0  0  0  0  0  0  0  0  0  0
    1.6570   -9.7520    4.4230 C   0  0  0  0  0  3  0  0  0  0  0  0
    2.3290  -10.7210    3.6590 C   0  0  0  0  0  3  0  0  0  0  0  0
    3.5200  -10.4260    2.9970 C   0  0  0  0  0  0  0  0  0  0  0  0
    4.0440   -9.1340    3.1170 C   0  0  0  0  0  3  0  0  0  0  0  0
    3.3660   -8.1670    3.8770 C   0  0  0  0  0  0  0  0  0  0  0  0
    2.7120   -4.8330    5.1990 C   0  0  0  0  0  0  0  0  0  0  0  0
    2.2160   -3.8880    4.3030 C   0  0  0  0  0  3  0  0  0  0  0  0
    2.2360   -2.5340    4.6430 C   0  0  0  0  0  3  0  0  0  0  0  0
    2.7560   -2.1210    5.8740 C   0  0  0  0  0  3  0  0  0  0  0  0
    3.2670   -3.0610    6.7780 C   0  0  0  0  0  0  0  0  0  0  0  0
    3.2360   -4.4140    6.4230 C   0  0  0  0  0  3  0  0  0  0  0  0
    3.8520   -2.6650    8.1020 C   0  0  0  0  0  2  0  0  0  0  0  0
    3.3220   -3.4330    9.2970 N   0  0  0  0  0  4  0  0  0  0  0  0
    4.2860   -3.5090   10.4610 C   0  0  0  0  0  2  0  0  0  0  0  0
    3.7300   -4.4710   11.5120 C   0  0  0  0  0  2  0  0  0  0  0  0
    2.3260   -4.0790   11.9780 C   0  0  0  0  0  2  0  0  0  0  0  0
    1.3780   -3.9250   10.8000 C   0  0  0  0  0  0  0  0  0  0  0  0
    1.2100   -5.1390   10.2100 F   0  0  0  0  0  0  0  0  0  0  0  0
    0.1650   -3.5100   11.2160 F   0  0  0  0  0  0  0  0  0  0  0  0
    1.9400   -2.9670    9.7470 C   0  0  0  0  0  2  0  0  0  0  0  0
    3.2050   -4.3970    8.9540 H   0  0  0  0  0  0  0  0  0  0  0  0
    0.5010   -6.9530    6.0200 C   0  0  0  0  0  3  0  0  0  0  0  0
   -0.8060   -6.9800    5.2120 C   0  0  0  0  0  2  0  0  0  0  0  0
   -1.5860   -8.2870    5.2740 C   0  0  0  0  0  2  0  0  0  0  0  0
   -1.7360   -8.7960    6.7000 C   0  0  0  0  0  2  0  0  0  0  0  0
   -0.3910   -8.9670    7.3900 C   0  0  0  0  0  2  0  0  0  0  0  0
    0.4430   -7.6910    7.3670 C   0  0  0  0  0  2  0  0  0  0  0  0
    4.2420  -11.4610    2.1570 C   0  0  0  0  0  0  0  0  0  0  0  0
    3.7400  -11.7200    1.0150 O   0  0  0  0  0  0  0  0  0  0  0  0
    5.2820  -11.9910    2.6550 O   0  0  0  0  0  1  0  0  0  0  0  0
    4.9340   -6.2360    3.6480 C   0  0  0  0  0  2  0  0  0  0  0  0
    5.3460   -6.1710   -0.1740 C   0  0  0  0  0  1  0  0  0  0  0  0
    5.6190   -6.4210    1.2330 N   0  0  0  0  0  0  0  0  0  0  0  0
    6.6280   -7.4430    1.4930 C   0  0  0  0  0  1  0  0  0  0  0  0
    4.8450   -5.7790    2.1940 C   0  0  0  0  0  0  0  0  0  0  0  0
    4.1140   -4.8260    1.8870 O   0  0  0  0  0  0  0  0  0  0  0  0
  1  2  1  0  0  0  0
  2  3  2  0  0  0  0
  2 10  1  0  0  0  0
  3 26  1  0  0  0  0
  4  3  1  0  0  0  0
  5  4  1  0  0  0  0
  6  5  2  0  0  0  0
  7  8  2  0  0  0  0
  7  6  1  0  0  0  0
  8  9  1  0  0  0  0
  9  1  1  0  0  0  0
  9  4  2  0  0  0  0
 10 15  1  0  0  0  0
 11 12  1  0  0  0  0
 11 10  2  0  0  0  0
 12 13  2  0  0  0  0
 13 14  1  0  0  0  0
 14 16  1  0  0  0  0
 15 14  2  0  0  0  0
 16 17  1  0  0  0  0
 17 24  1  0  0  0  0
 17 18  1  0  0  0  0
 18 19  1  0  0  0  0
 19 20  1  0  0  0  0
 21 23  1  0  0  0  0
 21 20  1  0  0  0  0
 22 21  1  0  0  0  0
 24 21  1  0  0  0  0
 25 17  1  0  0  0  0
 26 31  1  0  0  0  0
 27 28  1  0  0  0  0
 27 26  1  0  0  0  0
 28 29  1  0  0  0  0
 29 30  1  0  0  0  0
 31 30  1  0  0  0  0
 32 34  1  0  0  0  0
 32  7  1  0  0  0  0
 33 32  2  0  0  0  0
 35  1  1  0  0  0  0
 36 37  1  0  0  0  0
 37 38  1  0  0  0  0
 37 39  1  0  0  0  0
 39 35  1  0  0  0  0
 40 39  2  0  0  0  0
M  END
>  <minimizedAffinity>
-8.02368736

$$$$
