
 OpenBabel09122222393D

 40 44  0  0  0  0  0  0  0  0999 V2000
    4.6960   -8.4060    3.2180 N   0  0  0  0  0  0  0  0  0  0  0  0
    3.8870   -8.1040    4.2920 C   0  0  0  0  0  0  0  0  0  0  0  0
    3.8390   -6.7120    4.4230 C   0  0  0  0  0  0  0  0  0  0  0  0
    4.6790   -6.1720    3.3840 C   0  0  0  0  0  0  0  0  0  0  0  0
    5.0750   -4.8780    2.9750 C   0  0  0  0  0  3  0  0  0  0  0  0
    5.9600   -4.7040    1.8990 C   0  0  0  0  0  3  0  0  0  0  0  0
    6.4760   -5.7940    1.1980 C   0  0  0  0  0  0  0  0  0  0  0  0
    6.0810   -7.0790    1.5870 C   0  0  0  0  0  3  0  0  0  0  0  0
    5.2000   -7.2490    2.6660 C   0  0  0  0  0  0  0  0  0  0  0  0
    3.3240   -9.1270    5.1650 C   0  0  0  0  0  0  0  0  0  0  0  0
    4.0910   -9.7900    6.1210 C   0  0  0  0  0  3  0  0  0  0  0  0
    3.5010  -10.7630    6.9290 C   0  0  0  0  0  3  0  0  0  0  0  0
    2.1470  -11.0810    6.7810 C   0  0  0  0  0  3  0  0  0  0  0  0
    1.3680  -10.4280    5.8160 C   0  0  0  0  0  0  0  0  0  0  0  0
    1.9740   -9.4530    5.0170 C   0  0  0  0  0  3  0  0  0  0  0  0
   -0.0830  -10.7480    5.6070 C   0  0  0  0  0  2  0  0  0  0  0  0
   -0.9650   -9.5580    5.2790 N   0  0  0  0  0  4  0  0  0  0  0  0
   -2.1610   -9.8940    4.4140 C   0  0  0  0  0  2  0  0  0  0  0  0
   -2.8490   -8.5990    3.9830 C   0  0  0  0  0  2  0  0  0  0  0  0
   -3.2510   -7.7270    5.1750 C   0  0  0  0  0  2  0  0  0  0  0  0
   -2.0650   -7.4560    6.0850 C   0  0  0  0  0  0  0  0  0  0  0  0
   -1.1550   -6.7040    5.4090 F   0  0  0  0  0  0  0  0  0  0  0  0
   -2.4460   -6.7480    7.1680 F   0  0  0  0  0  0  0  0  0  0  0  0
   -1.3740   -8.7540    6.5100 C   0  0  0  0  0  2  0  0  0  0  0  0
   -0.3640   -8.9400    4.7160 H   0  0  0  0  0  0  0  0  0  0  0  0
    3.0610   -5.9860    5.5140 C   0  0  0  0  0  3  0  0  0  0  0  0
    3.9450   -5.3050    6.5710 C   0  0  0  0  0  2  0  0  0  0  0  0
    4.1830   -3.8150    6.3630 C   0  0  0  0  0  2  0  0  0  0  0  0
    2.8920   -3.0660    6.0680 C   0  0  0  0  0  2  0  0  0  0  0  0
    2.1590   -3.6420    4.8650 C   0  0  0  0  0  2  0  0  0  0  0  0
    1.8860   -5.1350    5.0090 C   0  0  0  0  0  2  0  0  0  0  0  0
    7.4450   -5.6150    0.0460 C   0  0  0  0  0  0  0  0  0  0  0  0
    8.6850   -5.6120    0.3390 O   0  0  0  0  0  1  0  0  0  0  0  0
    6.9500   -5.4760   -1.1140 O   0  0  0  0  0  0  0  0  0  0  0  0
    4.9600   -9.7360    2.6620 C   0  0  0  0  0  2  0  0  0  0  0  0
    1.9090  -11.7780    1.5190 C   0  0  0  0  0  1  0  0  0  0  0  0
    3.1630  -11.4280    2.1690 N   0  0  0  0  0  0  0  0  0  0  0  0
    3.5660  -12.3200    3.2520 C   0  0  0  0  0  1  0  0  0  0  0  0
    3.8040  -10.2490    1.8060 C   0  0  0  0  0  0  0  0  0  0  0  0
    3.4680   -9.6330    0.7840 O   0  0  0  0  0  0  0  0  0  0  0  0
  1  2  1  0  0  0  0
  2  3  2  0  0  0  0
  2 10  1  0  0  0  0
  3 26  1  0  0  0  0
  4  3  1  0  0  0  0
  5  4  1  0  0  0  0
  6  5  2  0  0  0  0
  7  8  2  0  0  0  0
  7  6  1  0  0  0  0
  8  9  1  0  0  0  0
  9  1  1  0  0  0  0
  9  4  2  0  0  0  0
 10 11  1  0  0  0  0
 11 12  2  0  0  0  0
 13 12  1  0  0  0  0
 14 13  2  0  0  0  0
 15 10  2  0  0  0  0
 15 14  1  0  0  0  0
 16 14  1  0  0  0  0
 17 16  1  0  0  0  0
 17 24  1  0  0  0  0
 18 17  1  0  0  0  0
 19 18  1  0  0  0  0
 19 20  1  0  0  0  0
 20 21  1  0  0  0  0
 21 24  1  0  0  0  0
 21 23  1  0  0  0  0
 22 21  1  0  0  0  0
 25 17  1  0  0  0  0
 26 27  1  0  0  0  0
 28 27  1  0  0  0  0
 29 28  1  0  0  0  0
 30 31  1  0  0  0  0
 30 29  1  0  0  0  0
 31 26  1  0  0  0  0
 32 33  1  0  0  0  0
 32  7  1  0  0  0  0
 34 32  2  0  0  0  0
 35  1  1  0  0  0  0
 36 37  1  0  0  0  0
 37 38  1  0  0  0  0
 39 37  1  0  0  0  0
 39 35  1  0  0  0  0
 40 39  2  0  0  0  0
M  END
>  <minimizedAffinity>
-8.31879234

$$$$
