
 OpenBabel09122222393D

 40 44  0  0  0  0  0  0  0  0999 V2000
    3.4160   -7.1430    4.9110 N   0  0  0  0  0  0  0  0  0  0  0  0
    3.7120   -5.9950    4.2070 C   0  0  0  0  0  0  0  0  0  0  0  0
    4.4510   -6.3570    3.0750 C   0  0  0  0  0  0  0  0  0  0  0  0
    4.6130   -7.7880    3.1300 C   0  0  0  0  0  0  0  0  0  0  0  0
    5.2510   -8.7640    2.3330 C   0  0  0  0  0  3  0  0  0  0  0  0
    5.2380  -10.1190    2.7050 C   0  0  0  0  0  3  0  0  0  0  0  0
    4.5950  -10.5460    3.8660 C   0  0  0  0  0  0  0  0  0  0  0  0
    3.9480   -9.5910    4.6570 C   0  0  0  0  0  3  0  0  0  0  0  0
    3.9690   -8.2370    4.2850 C   0  0  0  0  0  0  0  0  0  0  0  0
    3.3830   -4.6630    4.7000 C   0  0  0  0  0  0  0  0  0  0  0  0
    2.2000   -4.0150    4.3500 C   0  0  0  0  0  3  0  0  0  0  0  0
    1.9360   -2.7380    4.8490 C   0  0  0  0  0  3  0  0  0  0  0  0
    2.8540   -2.1030    5.6910 C   0  0  0  0  0  3  0  0  0  0  0  0
    4.0520   -2.7410    6.0410 C   0  0  0  0  0  0  0  0  0  0  0  0
    4.2990   -4.0220    5.5360 C   0  0  0  0  0  3  0  0  0  0  0  0
    5.0770   -2.0930    6.9260 C   0  0  0  0  0  2  0  0  0  0  0  0
    4.6370   -1.8590    8.3580 N   0  0  0  0  0  4  0  0  0  0  0  0
    3.8240   -0.5970    8.5570 C   0  0  0  0  0  2  0  0  0  0  0  0
    3.6190   -0.3630   10.0530 C   0  0  0  0  0  2  0  0  0  0  0  0
    2.9660   -1.5600   10.7480 C   0  0  0  0  0  2  0  0  0  0  0  0
    3.7390   -2.8400   10.4810 C   0  0  0  0  0  0  0  0  0  0  0  0
    4.9650   -2.7420   11.0630 F   0  0  0  0  0  0  0  0  0  0  0  0
    3.1150   -3.8990   11.0380 F   0  0  0  0  0  0  0  0  0  0  0  0
    3.9490   -3.0700    8.9830 C   0  0  0  0  0  2  0  0  0  0  0  0
    5.5150   -1.7240    8.8790 H   0  0  0  0  0  0  0  0  0  0  0  0
    4.9860   -5.3620    2.0540 C   0  0  0  0  0  3  0  0  0  0  0  0
    6.5120   -5.1790    2.0920 C   0  0  0  0  0  2  0  0  0  0  0  0
    7.2920   -5.9830    1.0610 C   0  0  0  0  0  2  0  0  0  0  0  0
    6.6950   -5.8600   -0.3320 C   0  0  0  0  0  2  0  0  0  0  0  0
    5.2290   -6.2700   -0.3640 C   0  0  0  0  0  2  0  0  0  0  0  0
    4.3870   -5.4980    0.6460 C   0  0  0  0  0  2  0  0  0  0  0  0
    4.5900  -12.0040    4.2840 C   0  0  0  0  0  0  0  0  0  0  0  0
    5.6850  -12.6400    4.1480 O   0  0  0  0  0  0  0  0  0  0  0  0
    3.5000  -12.4780    4.7270 O   0  0  0  0  0  1  0  0  0  0  0  0
    2.5850   -7.2470    6.1140 C   0  0  0  0  0  2  0  0  0  0  0  0
    3.9150   -8.8790    9.3310 C   0  0  0  0  0  1  0  0  0  0  0  0
    3.0020   -8.4660    8.2760 N   0  0  0  0  0  0  0  0  0  0  0  0
    1.7600   -9.2290    8.2020 C   0  0  0  0  0  1  0  0  0  0  0  0
    3.4120   -7.4900    7.3740 C   0  0  0  0  0  0  0  0  0  0  0  0
    4.4170   -6.8000    7.5990 O   0  0  0  0  0  0  0  0  0  0  0  0
  1 35  1  0  0  0  0
  2 10  1  0  0  0  0
  2  1  1  0  0  0  0
  3  4  1  0  0  0  0
  3  2  2  0  0  0  0
  4  9  1  0  0  0  0
  5  6  1  0  0  0  0
  5  4  2  0  0  0  0
  6  7  2  0  0  0  0
  7 32  1  0  0  0  0
  7  8  1  0  0  0  0
  9  8  2  0  0  0  0
  9  1  1  0  0  0  0
 10 15  1  0  0  0  0
 11 10  2  0  0  0  0
 11 12  1  0  0  0  0
 12 13  2  0  0  0  0
 13 14  1  0  0  0  0
 14 16  1  0  0  0  0
 15 14  2  0  0  0  0
 16 17  1  0  0  0  0
 17 18  1  0  0  0  0
 17 25  1  0  0  0  0
 17 24  1  0  0  0  0
 18 19  1  0  0  0  0
 19 20  1  0  0  0  0
 21 20  1  0  0  0  0
 21 23  1  0  0  0  0
 21 22  1  0  0  0  0
 24 21  1  0  0  0  0
 26 27  1  0  0  0  0
 26  3  1  0  0  0  0
 28 27  1  0  0  0  0
 29 28  1  0  0  0  0
 30 29  1  0  0  0  0
 30 31  1  0  0  0  0
 31 26  1  0  0  0  0
 32 34  1  0  0  0  0
 33 32  2  0  0  0  0
 35 39  1  0  0  0  0
 37 36  1  0  0  0  0
 38 37  1  0  0  0  0
 39 40  2  0  0  0  0
 39 37  1  0  0  0  0
M  END
>  <minimizedAffinity>
-7.98019552

$$$$
