
 OpenBabel09122222393D

 40 44  0  0  0  0  0  0  0  0999 V2000
    3.6320   -7.6390    3.4490 N   0  0  0  0  0  0  0  0  0  0  0  0
    4.1910   -6.4170    3.1410 C   0  0  0  0  0  0  0  0  0  0  0  0
    3.8500   -5.5150    4.1540 C   0  0  0  0  0  0  0  0  0  0  0  0
    3.0340   -6.2410    5.0940 C   0  0  0  0  0  0  0  0  0  0  0  0
    2.3630   -5.9330    6.2990 C   0  0  0  0  0  3  0  0  0  0  0  0
    1.6050   -6.9070    6.9690 C   0  0  0  0  0  3  0  0  0  0  0  0
    1.4900   -8.2060    6.4740 C   0  0  0  0  0  0  0  0  0  0  0  0
    2.1600   -8.5260    5.2890 C   0  0  0  0  0  3  0  0  0  0  0  0
    2.9120   -7.5480    4.6190 C   0  0  0  0  0  0  0  0  0  0  0  0
    4.8920   -6.1660    1.8880 C   0  0  0  0  0  0  0  0  0  0  0  0
    4.2150   -5.9780    0.6840 C   0  0  0  0  0  3  0  0  0  0  0  0
    4.9360   -5.7420   -0.4870 C   0  0  0  0  0  3  0  0  0  0  0  0
    6.3340   -5.7000   -0.4620 C   0  0  0  0  0  3  0  0  0  0  0  0
    7.0260   -5.8990    0.7400 C   0  0  0  0  0  0  0  0  0  0  0  0
    6.2880   -6.1300    1.9060 C   0  0  0  0  0  3  0  0  0  0  0  0
    8.5250   -5.8820    0.8150 C   0  0  0  0  0  2  0  0  0  0  0  0
    9.1510   -4.5040    0.8990 N   0  0  0  0  0  4  0  0  0  0  0  0
    9.3150   -3.8160   -0.4390 C   0  0  0  0  0  2  0  0  0  0  0  0
   10.1360   -2.5400   -0.2510 C   0  0  0  0  0  2  0  0  0  0  0  0
    9.5230   -1.5980    0.7880 C   0  0  0  0  0  2  0  0  0  0  0  0
    9.2860   -2.3130    2.1080 C   0  0  0  0  0  0  0  0  0  0  0  0
   10.4890   -2.6630    2.6390 F   0  0  0  0  0  0  0  0  0  0  0  0
    8.6800   -1.4950    2.9920 F   0  0  0  0  0  0  0  0  0  0  0  0
    8.4690   -3.5930    1.9160 C   0  0  0  0  0  2  0  0  0  0  0  0
   10.1030   -4.6740    1.2560 H   0  0  0  0  0  0  0  0  0  0  0  0
    4.2630   -4.0480    4.1630 C   0  0  0  0  0  3  0  0  0  0  0  0
    3.0930   -3.0630    4.0160 C   0  0  0  0  0  2  0  0  0  0  0  0
    2.5730   -2.4670    5.3170 C   0  0  0  0  0  2  0  0  0  0  0  0
    3.6980   -1.9540    6.2020 C   0  0  0  0  0  2  0  0  0  0  0  0
    4.7240   -3.0360    6.5070 C   0  0  0  0  0  2  0  0  0  0  0  0
    5.2900   -3.6750    5.2430 C   0  0  0  0  0  2  0  0  0  0  0  0
    0.6600   -9.2580    7.1830 C   0  0  0  0  0  0  0  0  0  0  0  0
   -0.4730   -9.5340    6.6690 O   0  0  0  0  0  0  0  0  0  0  0  0
    1.1510   -9.7760    8.2320 O   0  0  0  0  0  1  0  0  0  0  0  0
    3.8040   -8.8950    2.7130 C   0  0  0  0  0  2  0  0  0  0  0  0
    5.4070  -12.1110    4.0800 C   0  0  0  0  0  1  0  0  0  0  0  0
    4.3990  -11.1420    3.6770 N   0  0  0  0  0  0  0  0  0  0  0  0
    3.0580  -11.6890    3.4910 C   0  0  0  0  0  1  0  0  0  0  0  0
    4.7920   -9.8390    3.3950 C   0  0  0  0  0  0  0  0  0  0  0  0
    5.9170   -9.4320    3.7170 O   0  0  0  0  0  0  0  0  0  0  0  0
  1  9  1  0  0  0  0
  2  1  1  0  0  0  0
  2  3  2  0  0  0  0
  3 26  1  0  0  0  0
  3  4  1  0  0  0  0
  4  5  1  0  0  0  0
  5  6  2  0  0  0  0
  7  6  1  0  0  0  0
  7 32  1  0  0  0  0
  8  7  2  0  0  0  0
  9  4  2  0  0  0  0
  9  8  1  0  0  0  0
 10 15  1  0  0  0  0
 10  2  1  0  0  0  0
 11 10  2  0  0  0  0
 12 13  2  0  0  0  0
 12 11  1  0  0  0  0
 13 14  1  0  0  0  0
 14 16  1  0  0  0  0
 14 15  2  0  0  0  0
 16 17  1  0  0  0  0
 17 25  1  0  0  0  0
 17 24  1  0  0  0  0
 18 19  1  0  0  0  0
 18 17  1  0  0  0  0
 19 20  1  0  0  0  0
 20 21  1  0  0  0  0
 21 22  1  0  0  0  0
 21 23  1  0  0  0  0
 24 21  1  0  0  0  0
 26 31  1  0  0  0  0
 27 26  1  0  0  0  0
 27 28  1  0  0  0  0
 28 29  1  0  0  0  0
 29 30  1  0  0  0  0
 31 30  1  0  0  0  0
 32 34  1  0  0  0  0
 33 32  2  0  0  0  0
 35 39  1  0  0  0  0
 35  1  1  0  0  0  0
 37 36  1  0  0  0  0
 38 37  1  0  0  0  0
 39 37  1  0  0  0  0
 39 40  2  0  0  0  0
M  END
>  <minimizedAffinity>
-8.62137604

$$$$
