
 OpenBabel09122222393D

 24 27  0  0  0  0  0  0  0  0999 V2000
    9.6810    0.8000    2.4430 C   0  0  0  0  0  0  0  0  0  0  0  0
    9.4590    1.2560    1.1560 C   0  0  0  0  0  3  0  0  0  0  0  0
    9.8120    2.6250    1.0510 C   0  0  0  0  0  0  0  0  0  0  0  0
    9.8170    3.5870    0.0770 N   0  0  0  0  0  0  0  0  0  0  0  0
   10.2960    4.7600    0.6090 C   0  0  0  0  0  0  0  0  0  0  0  0
   10.5930    4.5470    1.9510 C   0  0  0  0  0  0  0  0  0  0  0  0
   10.2800    3.1730    2.2070 C   0  0  0  0  0  0  0  0  0  0  0  0
   10.3060    2.0100    3.4960 S   0  0  0  0  0  0  0  0  0  0  0  0
    9.5220    3.4110   -0.8750 H   0  0  0  0  0  0  0  0  0  0  0  0
   10.4340    5.9560   -0.2180 C   0  0  0  0  0  0  0  0  0  0  0  0
   11.7010    6.4370   -0.5650 C   0  0  0  0  0  3  0  0  0  0  0  0
   11.8310    7.5840   -1.3510 C   0  0  0  0  0  3  0  0  0  0  0  0
   10.6940    8.2600   -1.7930 C   0  0  0  0  0  3  0  0  0  0  0  0
    9.4270    7.7890   -1.4500 C   0  0  0  0  0  3  0  0  0  0  0  0
    9.2980    6.6410   -0.6650 C   0  0  0  0  0  3  0  0  0  0  0  0
   11.1190    5.5120    2.9720 C   0  0  0  0  0  3  0  0  0  0  0  0
   12.6550    5.6030    2.9710 C   0  0  0  0  0  2  0  0  0  0  0  0
   13.1580    6.5550    4.0550 C   0  0  0  0  0  2  0  0  0  0  0  0
   12.5170    7.9340    3.9360 C   0  0  0  0  0  2  0  0  0  0  0  0
   10.9940    7.8500    3.9400 C   0  0  0  0  0  2  0  0  0  0  0  0
   10.4780    6.9040    2.8570 C   0  0  0  0  0  2  0  0  0  0  0  0
    9.3950   -0.8350    4.1120 O   0  0  0  0  0  1  0  0  0  0  0  0
    9.4020   -0.6070    2.8600 C   0  0  0  0  0  0  0  0  0  0  0  0
    9.1950   -1.4640    1.9460 O   0  0  0  0  0  0  0  0  0  0  0  0
  1 23  1  0  0  0  0
  1  8  1  0  0  0  0
  2  1  2  0  0  0  0
  3  2  1  0  0  0  0
  3  7  2  0  0  0  0
  4  5  1  0  0  0  0
  4  3  1  0  0  0  0
  5  6  2  0  0  0  0
  6  7  1  0  0  0  0
  6 16  1  0  0  0  0
  7  8  1  0  0  0  0
  9  4  1  0  0  0  0
 10  5  1  0  0  0  0
 11 10  1  0  0  0  0
 12 11  2  0  0  0  0
 13 14  2  0  0  0  0
 13 12  1  0  0  0  0
 14 15  1  0  0  0  0
 15 10  2  0  0  0  0
 17 16  1  0  0  0  0
 17 18  1  0  0  0  0
 19 20  1  0  0  0  0
 19 18  1  0  0  0  0
 21 16  1  0  0  0  0
 21 20  1  0  0  0  0
 23 22  1  0  0  0  0
 24 23  2  0  0  0  0
M  END
>  <minimizedAffinity>
-5.34343433

$$$$
