
 OpenBabel09122222393D

 24 27  0  0  0  0  0  0  0  0999 V2000
   11.0280    6.4040    1.6660 C   0  0  0  0  0  0  0  0  0  0  0  0
   11.6550    6.0400    0.4870 C   0  0  0  0  0  3  0  0  0  0  0  0
   11.4420    4.6640    0.2210 C   0  0  0  0  0  0  0  0  0  0  0  0
   11.7930    3.7650   -0.7500 N   0  0  0  0  0  0  0  0  0  0  0  0
   11.2560    2.5390   -0.4400 C   0  0  0  0  0  0  0  0  0  0  0  0
   10.5580    2.6530    0.7580 C   0  0  0  0  0  0  0  0  0  0  0  0
   10.6880    4.0230    1.1570 C   0  0  0  0  0  0  0  0  0  0  0  0
   10.2000    5.1010    2.4280 S   0  0  0  0  0  0  0  0  0  0  0  0
   12.3450    4.0140   -1.5600 H   0  0  0  0  0  0  0  0  0  0  0  0
   11.4520    1.3900   -1.3210 C   0  0  0  0  0  0  0  0  0  0  0  0
   10.3570    0.7710   -1.9330 C   0  0  0  0  0  3  0  0  0  0  0  0
   10.5450   -0.3300   -2.7720 C   0  0  0  0  0  3  0  0  0  0  0  0
   11.8300   -0.8220   -3.0000 C   0  0  0  0  0  3  0  0  0  0  0  0
   12.9270   -0.2120   -2.3920 C   0  0  0  0  0  3  0  0  0  0  0  0
   12.7380    0.8910   -1.5560 C   0  0  0  0  0  3  0  0  0  0  0  0
    9.8170    1.6010    1.5290 C   0  0  0  0  0  3  0  0  0  0  0  0
    9.7860    0.2420    0.8080 C   0  0  0  0  0  2  0  0  0  0  0  0
    8.9820   -0.7900    1.5970 C   0  0  0  0  0  2  0  0  0  0  0  0
    9.4910   -0.9290    3.0270 C   0  0  0  0  0  2  0  0  0  0  0  0
    9.5190    0.4160    3.7480 C   0  0  0  0  0  2  0  0  0  0  0  0
   10.3250    1.4550    2.9720 C   0  0  0  0  0  2  0  0  0  0  0  0
   10.1880    8.0960    3.0690 O   0  0  0  0  0  1  0  0  0  0  0  0
   11.0760    7.7950    2.2090 C   0  0  0  0  0  0  0  0  0  0  0  0
   11.9870    8.5660    1.7770 O   0  0  0  0  0  0  0  0  0  0  0  0
  1 23  1  0  0  0  0
  1  8  1  0  0  0  0
  2  1  2  0  0  0  0
  3  2  1  0  0  0  0
  3  7  2  0  0  0  0
  4  5  1  0  0  0  0
  4  3  1  0  0  0  0
  5  6  2  0  0  0  0
  6  7  1  0  0  0  0
  6 16  1  0  0  0  0
  7  8  1  0  0  0  0
  9  4  1  0  0  0  0
 10  5  1  0  0  0  0
 11 10  2  0  0  0  0
 12 11  1  0  0  0  0
 13 12  2  0  0  0  0
 13 14  1  0  0  0  0
 14 15  2  0  0  0  0
 15 10  1  0  0  0  0
 16 21  1  0  0  0  0
 17 16  1  0  0  0  0
 17 18  1  0  0  0  0
 18 19  1  0  0  0  0
 19 20  1  0  0  0  0
 21 20  1  0  0  0  0
 23 22  1  0  0  0  0
 24 23  2  0  0  0  0
M  END
>  <minimizedAffinity>
-4.59703636

$$$$
