
 OpenBabel09122222393D

 24 27  0  0  0  0  0  0  0  0999 V2000
    9.0930   -1.8910    2.7000 C   0  0  0  0  0  0  0  0  0  0  0  0
    9.0580   -0.6660    3.3410 C   0  0  0  0  0  3  0  0  0  0  0  0
    9.4530    0.3660    2.4530 C   0  0  0  0  0  0  0  0  0  0  0  0
    9.6110    1.7240    2.5020 N   0  0  0  0  0  0  0  0  0  0  0  0
   10.0250    2.1730    1.2710 C   0  0  0  0  0  0  0  0  0  0  0  0
   10.1450    1.0780    0.4210 C   0  0  0  0  0  0  0  0  0  0  0  0
    9.7680   -0.0650    1.2000 C   0  0  0  0  0  0  0  0  0  0  0  0
    9.5920   -1.7860    1.0560 S   0  0  0  0  0  0  0  0  0  0  0  0
    9.4220    2.2730    3.3310 H   0  0  0  0  0  0  0  0  0  0  0  0
   10.2500    3.5950    1.0270 C   0  0  0  0  0  0  0  0  0  0  0  0
   11.2740    4.2760    1.6950 C   0  0  0  0  0  3  0  0  0  0  0  0
   11.4850    5.6370    1.4650 C   0  0  0  0  0  3  0  0  0  0  0  0
   10.6700    6.3270    0.5680 C   0  0  0  0  0  3  0  0  0  0  0  0
    9.6470    5.6570   -0.1010 C   0  0  0  0  0  3  0  0  0  0  0  0
    9.4380    4.2950    0.1290 C   0  0  0  0  0  3  0  0  0  0  0  0
   10.5840    1.0320   -1.0130 C   0  0  0  0  0  3  0  0  0  0  0  0
   11.9910    1.6160   -1.2250 C   0  0  0  0  0  2  0  0  0  0  0  0
   12.3850    1.6000   -2.7020 C   0  0  0  0  0  2  0  0  0  0  0  0
   12.2640    0.2030   -3.3020 C   0  0  0  0  0  2  0  0  0  0  0  0
   10.8690   -0.3790   -3.0970 C   0  0  0  0  0  2  0  0  0  0  0  0
   10.4660   -0.3730   -1.6240 C   0  0  0  0  0  2  0  0  0  0  0  0
    9.4380   -3.4970    4.3850 O   0  0  0  0  0  1  0  0  0  0  0  0
    8.7280   -3.1690    3.3820 C   0  0  0  0  0  0  0  0  0  0  0  0
    7.7470   -3.8280    2.9160 O   0  0  0  0  0  0  0  0  0  0  0  0
  1  2  2  0  0  0  0
  1 23  1  0  0  0  0
  3  4  1  0  0  0  0
  3  2  1  0  0  0  0
  4  9  1  0  0  0  0
  5  4  1  0  0  0  0
  6  7  1  0  0  0  0
  6  5  2  0  0  0  0
  7  3  2  0  0  0  0
  8  7  1  0  0  0  0
  8  1  1  0  0  0  0
 10  5  1  0  0  0  0
 10 11  1  0  0  0  0
 12 11  2  0  0  0  0
 13 12  1  0  0  0  0
 14 15  1  0  0  0  0
 14 13  2  0  0  0  0
 15 10  2  0  0  0  0
 16  6  1  0  0  0  0
 17 16  1  0  0  0  0
 18 17  1  0  0  0  0
 19 20  1  0  0  0  0
 19 18  1  0  0  0  0
 20 21  1  0  0  0  0
 21 16  1  0  0  0  0
 23 22  1  0  0  0  0
 24 23  2  0  0  0  0
M  END
>  <minimizedAffinity>
-5.81106758

$$$$
