
 OpenBabel09122222393D

 24 27  0  0  0  0  0  0  0  0999 V2000
    8.0800   -3.7490    1.6290 C   0  0  0  0  0  0  0  0  0  0  0  0
    7.8660   -2.6410    2.4290 C   0  0  0  0  0  3  0  0  0  0  0  0
    8.6100   -1.5350    1.9460 C   0  0  0  0  0  0  0  0  0  0  0  0
    8.8000   -0.2260    2.2970 N   0  0  0  0  0  0  0  0  0  0  0  0
    9.6620    0.3580    1.4000 C   0  0  0  0  0  0  0  0  0  0  0  0
   10.0390   -0.6000    0.4640 C   0  0  0  0  0  0  0  0  0  0  0  0
    9.3480   -1.8000    0.8320 C   0  0  0  0  0  0  0  0  0  0  0  0
    9.1590   -3.4490    0.3220 S   0  0  0  0  0  0  0  0  0  0  0  0
    8.3430    0.2060    3.0890 H   0  0  0  0  0  0  0  0  0  0  0  0
   10.0270    1.7670    1.5180 C   0  0  0  0  0  0  0  0  0  0  0  0
   10.3840    2.3060    2.7590 C   0  0  0  0  0  3  0  0  0  0  0  0
   10.7280    3.6550    2.8720 C   0  0  0  0  0  3  0  0  0  0  0  0
   10.7120    4.4750    1.7440 C   0  0  0  0  0  3  0  0  0  0  0  0
   10.3550    3.9470    0.5040 C   0  0  0  0  0  3  0  0  0  0  0  0
   10.0140    2.5980    0.3920 C   0  0  0  0  0  3  0  0  0  0  0  0
   10.9760   -0.4730   -0.7010 C   0  0  0  0  0  3  0  0  0  0  0  0
   11.9050   -1.6900   -0.8550 C   0  0  0  0  0  2  0  0  0  0  0  0
   12.8780   -1.5050   -2.0180 C   0  0  0  0  0  2  0  0  0  0  0  0
   12.1490   -1.1920   -3.3190 C   0  0  0  0  0  2  0  0  0  0  0  0
   11.2290    0.0170   -3.1730 C   0  0  0  0  0  2  0  0  0  0  0  0
   10.2470   -0.1580   -2.0170 C   0  0  0  0  0  2  0  0  0  0  0  0
    6.4180   -5.0590    2.6600 O   0  0  0  0  0  1  0  0  0  0  0  0
    7.4300   -5.0690    1.8880 C   0  0  0  0  0  0  0  0  0  0  0  0
    7.9280   -6.0930    1.3270 O   0  0  0  0  0  0  0  0  0  0  0  0
  1 23  1  0  0  0  0
  1  2  2  0  0  0  0
  3  4  1  0  0  0  0
  3  2  1  0  0  0  0
  4  9  1  0  0  0  0
  5 10  1  0  0  0  0
  5  4  1  0  0  0  0
  6  7  1  0  0  0  0
  6  5  2  0  0  0  0
  7  3  2  0  0  0  0
  8  7  1  0  0  0  0
  8  1  1  0  0  0  0
 10 11  1  0  0  0  0
 11 12  2  0  0  0  0
 13 12  1  0  0  0  0
 14 13  2  0  0  0  0
 15 14  1  0  0  0  0
 15 10  2  0  0  0  0
 16  6  1  0  0  0  0
 17 16  1  0  0  0  0
 18 17  1  0  0  0  0
 19 20  1  0  0  0  0
 19 18  1  0  0  0  0
 20 21  1  0  0  0  0
 21 16  1  0  0  0  0
 23 22  1  0  0  0  0
 24 23  2  0  0  0  0
M  END
>  <minimizedAffinity>
-5.67012405

$$$$
