
 OpenBabel09122222393D

 24 27  0  0  0  0  0  0  0  0999 V2000
   10.7690    4.5130    0.9710 C   0  0  0  0  0  0  0  0  0  0  0  0
   10.2920    3.9290    2.1320 C   0  0  0  0  0  3  0  0  0  0  0  0
   10.0760    2.5420    1.9320 C   0  0  0  0  0  0  0  0  0  0  0  0
    9.6340    1.4800    2.6730 N   0  0  0  0  0  0  0  0  0  0  0  0
    9.6580    0.3480    1.8930 C   0  0  0  0  0  0  0  0  0  0  0  0
   10.1130    0.6960    0.6250 C   0  0  0  0  0  0  0  0  0  0  0  0
   10.3780    2.1030    0.6780 C   0  0  0  0  0  0  0  0  0  0  0  0
   10.9500    3.3980   -0.3280 S   0  0  0  0  0  0  0  0  0  0  0  0
    9.3620    1.5580    3.6440 H   0  0  0  0  0  0  0  0  0  0  0  0
    9.2580   -0.9460    2.4380 C   0  0  0  0  0  0  0  0  0  0  0  0
    8.6500   -1.9040    1.6190 C   0  0  0  0  0  3  0  0  0  0  0  0
    8.2640   -3.1400    2.1420 C   0  0  0  0  0  3  0  0  0  0  0  0
    8.4790   -3.4240    3.4910 C   0  0  0  0  0  3  0  0  0  0  0  0
    9.0820   -2.4750    4.3140 C   0  0  0  0  0  3  0  0  0  0  0  0
    9.4700   -1.2400    3.7900 C   0  0  0  0  0  3  0  0  0  0  0  0
   10.2960   -0.1670   -0.5880 C   0  0  0  0  0  3  0  0  0  0  0  0
   10.6890    0.6380   -1.8390 C   0  0  0  0  0  2  0  0  0  0  0  0
   10.8180   -0.2640   -3.0650 C   0  0  0  0  0  2  0  0  0  0  0  0
   11.7850   -1.4160   -2.8170 C   0  0  0  0  0  2  0  0  0  0  0  0
   11.3980   -2.2210   -1.5800 C   0  0  0  0  0  2  0  0  0  0  0  0
   11.2710   -1.3300   -0.3460 C   0  0  0  0  0  2  0  0  0  0  0  0
   10.1300    6.7390    0.5540 O   0  0  0  0  0  0  0  0  0  0  0  0
   11.0900    5.9680    0.8740 C   0  0  0  0  0  0  0  0  0  0  0  0
   12.2840    6.3270    1.1150 O   0  0  0  0  0  1  0  0  0  0  0  0
  1  2  2  0  0  0  0
  3  2  1  0  0  0  0
  3  4  1  0  0  0  0
  4  9  1  0  0  0  0
  5 10  1  0  0  0  0
  5  4  1  0  0  0  0
  6  7  1  0  0  0  0
  6  5  2  0  0  0  0
  7  3  2  0  0  0  0
  8  7  1  0  0  0  0
  8  1  1  0  0  0  0
 10 15  1  0  0  0  0
 11 12  1  0  0  0  0
 11 10  2  0  0  0  0
 12 13  2  0  0  0  0
 13 14  1  0  0  0  0
 15 14  2  0  0  0  0
 16 21  1  0  0  0  0
 16  6  1  0  0  0  0
 17 16  1  0  0  0  0
 18 19  1  0  0  0  0
 18 17  1  0  0  0  0
 19 20  1  0  0  0  0
 20 21  1  0  0  0  0
 22 23  2  0  0  0  0
 23  1  1  0  0  0  0
 23 24  1  0  0  0  0
M  END
>  <minimizedAffinity>
-5.06479359

$$$$
