
 OpenBabel09122222393D

 24 27  0  0  0  0  0  0  0  0999 V2000
   10.5790    3.6580    0.0990 C   0  0  0  0  0  0  0  0  0  0  0  0
    9.5570    2.9860    0.7460 C   0  0  0  0  0  3  0  0  0  0  0  0
    9.7110    1.5860    0.5890 C   0  0  0  0  0  0  0  0  0  0  0  0
    9.0480    0.4550    0.9810 N   0  0  0  0  0  0  0  0  0  0  0  0
    9.7190   -0.6460    0.5050 C   0  0  0  0  0  0  0  0  0  0  0  0
   10.8260   -0.2090   -0.2160 C   0  0  0  0  0  0  0  0  0  0  0  0
   10.8010    1.2210   -0.1420 C   0  0  0  0  0  0  0  0  0  0  0  0
   11.7000    2.6070   -0.6780 S   0  0  0  0  0  0  0  0  0  0  0  0
    8.2110    0.4730    1.5480 H   0  0  0  0  0  0  0  0  0  0  0  0
    9.2460   -1.9970    0.7950 C   0  0  0  0  0  0  0  0  0  0  0  0
    8.7660   -2.3220    2.0680 C   0  0  0  0  0  3  0  0  0  0  0  0
    8.3180   -3.6150    2.3460 C   0  0  0  0  0  3  0  0  0  0  0  0
    8.3510   -4.5940    1.3520 C   0  0  0  0  0  3  0  0  0  0  0  0
    8.8300   -4.2790    0.0820 C   0  0  0  0  0  3  0  0  0  0  0  0
    9.2760   -2.9840   -0.1960 C   0  0  0  0  0  3  0  0  0  0  0  0
   11.8590   -1.0130   -0.9500 C   0  0  0  0  0  3  0  0  0  0  0  0
   12.0700   -2.4110   -0.3430 C   0  0  0  0  0  2  0  0  0  0  0  0
   13.1620   -3.1810   -1.0830 C   0  0  0  0  0  2  0  0  0  0  0  0
   12.8820   -3.2590   -2.5800 C   0  0  0  0  0  2  0  0  0  0  0  0
   12.6760   -1.8750   -3.1870 C   0  0  0  0  0  2  0  0  0  0  0  0
   11.5820   -1.0960   -2.4590 C   0  0  0  0  0  2  0  0  0  0  0  0
   11.8180    5.6310   -0.2320 O   0  0  0  0  0  0  0  0  0  0  0  0
   10.6860    5.1480    0.0890 C   0  0  0  0  0  0  0  0  0  0  0  0
    9.6510    5.8160    0.3960 O   0  0  0  0  0  1  0  0  0  0  0  0
  1  2  2  0  0  0  0
  3  2  1  0  0  0  0
  3  4  1  0  0  0  0
  4  9  1  0  0  0  0
  5 10  1  0  0  0  0
  5  4  1  0  0  0  0
  6  7  1  0  0  0  0
  6  5  2  0  0  0  0
  7  3  2  0  0  0  0
  8  7  1  0  0  0  0
  8  1  1  0  0  0  0
 10 11  1  0  0  0  0
 11 12  2  0  0  0  0
 13 12  1  0  0  0  0
 14 13  2  0  0  0  0
 15 14  1  0  0  0  0
 15 10  2  0  0  0  0
 16 17  1  0  0  0  0
 16  6  1  0  0  0  0
 18 17  1  0  0  0  0
 19 18  1  0  0  0  0
 20 19  1  0  0  0  0
 20 21  1  0  0  0  0
 21 16  1  0  0  0  0
 22 23  2  0  0  0  0
 23  1  1  0  0  0  0
 23 24  1  0  0  0  0
M  END
>  <minimizedAffinity>
-4.60151911

$$$$
