
 OpenBabel09122222393D

 24 27  0  0  0  0  0  0  0  0999 V2000
    9.7820    1.2900    2.0170 C   0  0  0  0  0  0  0  0  0  0  0  0
   10.1910    1.9460    3.1650 C   0  0  0  0  0  3  0  0  0  0  0  0
   10.5130    3.2950    2.8720 C   0  0  0  0  0  0  0  0  0  0  0  0
   10.9550    4.3920    3.5610 N   0  0  0  0  0  0  0  0  0  0  0  0
   11.0740    5.4500    2.6910 C   0  0  0  0  0  0  0  0  0  0  0  0
   10.7120    5.0170    1.4200 C   0  0  0  0  0  0  0  0  0  0  0  0
   10.3520    3.6380    1.5640 C   0  0  0  0  0  0  0  0  0  0  0  0
    9.7890    2.2940    0.6190 S   0  0  0  0  0  0  0  0  0  0  0  0
   11.1350    4.3840    4.5570 H   0  0  0  0  0  0  0  0  0  0  0  0
   11.5070    6.7620    3.1630 C   0  0  0  0  0  0  0  0  0  0  0  0
   12.7520    6.9190    3.7810 C   0  0  0  0  0  3  0  0  0  0  0  0
   13.1630    8.1750    4.2360 C   0  0  0  0  0  3  0  0  0  0  0  0
   12.3280    9.2810    4.0780 C   0  0  0  0  0  3  0  0  0  0  0  0
   11.0850    9.1330    3.4650 C   0  0  0  0  0  3  0  0  0  0  0  0
   10.6760    7.8780    3.0090 C   0  0  0  0  0  3  0  0  0  0  0  0
   10.6920    5.7790    0.1280 C   0  0  0  0  0  3  0  0  0  0  0  0
    9.4350    6.6510   -0.0330 C   0  0  0  0  0  2  0  0  0  0  0  0
    9.4240    7.3720   -1.3800 C   0  0  0  0  0  2  0  0  0  0  0  0
   10.6960    8.1840   -1.5950 C   0  0  0  0  0  2  0  0  0  0  0  0
   11.9470    7.3230   -1.4410 C   0  0  0  0  0  2  0  0  0  0  0  0
   11.9720    6.6000   -0.0960 C   0  0  0  0  0  2  0  0  0  0  0  0
    9.1330   -0.6610    0.8730 O   0  0  0  0  0  0  0  0  0  0  0  0
    9.3770   -0.1480    2.0110 C   0  0  0  0  0  0  0  0  0  0  0  0
    9.3060   -0.7460    3.1280 O   0  0  0  0  0  1  0  0  0  0  0  0
  1  2  2  0  0  0  0
  3  2  1  0  0  0  0
  3  4  1  0  0  0  0
  4  9  1  0  0  0  0
  5 10  1  0  0  0  0
  5  4  1  0  0  0  0
  6  7  1  0  0  0  0
  6  5  2  0  0  0  0
  7  3  2  0  0  0  0
  8  7  1  0  0  0  0
  8  1  1  0  0  0  0
 10 11  1  0  0  0  0
 11 12  2  0  0  0  0
 13 12  1  0  0  0  0
 14 13  2  0  0  0  0
 15 10  2  0  0  0  0
 15 14  1  0  0  0  0
 16  6  1  0  0  0  0
 17 16  1  0  0  0  0
 18 17  1  0  0  0  0
 19 20  1  0  0  0  0
 19 18  1  0  0  0  0
 20 21  1  0  0  0  0
 21 16  1  0  0  0  0
 22 23  2  0  0  0  0
 23  1  1  0  0  0  0
 23 24  1  0  0  0  0
M  END
>  <minimizedAffinity>
-4.86646891

$$$$
