
 OpenBabel09122222393D

 43 47  0  0  1  0  0  0  0  0999 V2000
    1.9320   -5.2390    5.0550 C   0  0  1  0  0  3  0  0  0  0  0  0
    1.3020   -4.1070    5.2610 N   0  0  0  0  0  0  0  0  0  0  0  0
    1.9730   -2.6510    5.2240 S   0  0  0  0  0  0  0  0  0  0  0  0
    1.9210   -2.1050    3.8840 O   0  0  0  0  0  0  0  0  0  0  0  0
    1.4650   -1.8730    6.3370 O   0  0  0  0  0  0  0  0  0  0  0  0
    3.6780   -2.9290    5.5620 C   0  0  0  0  0  0  0  0  0  0  0  0
    4.4450   -1.9150    6.1400 C   0  0  0  0  0  3  0  0  0  0  0  0
    5.7610   -2.1950    6.4890 C   0  0  0  0  0  0  0  0  0  0  0  0
    6.3080   -3.4480    6.2120 C   0  0  0  0  0  3  0  0  0  0  0  0
    5.5290   -4.4430    5.6110 C   0  0  0  0  0  3  0  0  0  0  0  0
    4.1880   -4.1990    5.3100 C   0  0  0  0  0  0  0  0  0  0  0  0
    3.3410   -5.2330    4.9140 N   0  0  0  0  0  0  0  0  0  0  0  0
    0.2990   -4.1360    5.4150 H   0  0  0  0  0  0  0  0  0  0  0  0
    3.7540   -6.1380    4.6850 H   0  0  0  0  0  0  0  0  0  0  0  0
    1.4290   -8.9750    4.7520 N   0  0  0  0  0  0  0  0  0  0  0  0
    2.0020   -7.7890    5.1500 C   0  0  0  0  0  0  0  0  0  0  0  0
    3.1890   -7.6710    5.4650 O   0  0  0  0  0  0  0  0  0  0  0  0
    1.1750   -6.5440    5.0660 C   0  0  0  0  0  0  0  0  0  0  0  0
   -0.1490   -6.6660    4.8620 C   0  0  0  0  0  0  0  0  0  0  0  0
   -0.7850   -7.9920    4.7850 C   0  0  0  0  0  0  0  0  0  0  0  0
   -2.1710   -8.1930    4.8150 C   0  0  0  0  0  3  0  0  0  0  0  0
   -2.6940   -9.4740    4.6460 C   0  0  0  0  0  3  0  0  0  0  0  0
   -1.8130  -10.5180    4.4530 C   0  0  0  0  0  3  0  0  0  0  0  0
   -0.4730  -10.3660    4.4490 N   0  0  0  0  0  0  0  0  0  0  0  0
    0.0270   -9.1230    4.6420 C   0  0  0  0  0  0  0  0  0  0  0  0
   -0.9420   -5.5480    4.6480 O   0  0  0  0  0  0  0  0  0  0  0  0
   -1.7680   -5.8160    4.2030 H   0  0  0  0  0  0  0  0  0  0  0  0
    2.2830  -10.1200    4.4240 C   0  0  0  0  0  2  0  0  0  0  0  0
    3.6020   -9.6990    3.7460 C   0  0  0  0  0  2  0  0  0  0  0  0
    2.2460  -10.1670    1.6320 C   0  0  0  0  0  1  0  0  0  0  0  0
    3.5800   -9.6870    2.2020 C   0  0  0  0  0  3  0  0  0  0  0  0
    3.8770   -8.2760    1.6840 C   0  0  0  0  0  1  0  0  0  0  0  0
    6.4860   -1.2510    7.2660 N   0  0  0  0  0  0  0  0  0  0  0  0
    6.5080   -0.2800    6.9560 H   0  0  0  0  0  0  0  0  0  0  0  0
    6.3470   -1.3460    8.9590 S   0  0  0  0  0  0  0  0  0  0  0  0
    7.4730   -2.0940    9.4740 O   0  0  0  0  0  0  0  0  0  0  0  0
    6.0490   -0.0060    9.4170 O   0  0  0  0  0  0  0  0  0  0  0  0
    4.8790   -2.3310    9.1860 C   0  0  0  0  0  0  0  0  0  0  0  0
    4.9810   -3.7240    9.2760 C   0  0  0  0  0  3  0  0  0  0  0  0
    3.8230   -4.4880    9.4170 C   0  0  0  0  0  3  0  0  0  0  0  0
    2.5760   -3.8620    9.4740 C   0  0  0  0  0  3  0  0  0  0  0  0
    2.4830   -2.4700    9.4050 C   0  0  0  0  0  3  0  0  0  0  0  0
    3.6360   -1.6970    9.2700 C   0  0  0  0  0  3  0  0  0  0  0  0
  1 18  1  1  0  0  0
  1  2  1  0  0  0  0
  2 13  1  0  0  0  0
  3  2  1  0  0  0  0
  3  6  1  0  0  0  0
  3  5  2  0  0  0  0
  4  3  2  0  0  0  0
  6  7  1  0  0  0  0
  7  8  2  0  0  0  0
  8 33  1  0  0  0  0
  9  8  1  0  0  0  0
 10  9  2  0  0  0  0
 11  6  2  0  0  0  0
 11 10  1  0  0  0  0
 12  1  1  0  0  0  0
 12 11  1  0  0  0  0
 14 12  1  0  0  0  0
 15 16  1  0  0  0  0
 16 17  2  0  0  0  0
 18 16  1  0  0  0  0
 19 18  2  0  0  0  0
 20 21  1  0  0  0  0
 20 19  1  0  0  0  0
 22 21  2  0  0  0  0
 23 22  1  0  0  0  0
 24 23  2  0  0  0  0
 24 25  1  0  0  0  0
 25 15  1  0  0  0  0
 25 20  2  0  0  0  0
 26 19  1  0  0  0  0
 27 26  1  0  0  0  0
 28 15  1  0  0  0  0
 29 28  1  0  0  0  0
 30 31  1  0  0  0  0
 31 29  1  0  0  0  0
 32 31  1  0  0  0  0
 33 35  1  0  0  0  0
 34 33  1  0  0  0  0
 35 38  1  0  0  0  0
 35 37  2  0  0  0  0
 35 36  2  0  0  0  0
 38 43  2  0  0  0  0
 38 39  1  0  0  0  0
 39 40  2  0  0  0  0
 40 41  1  0  0  0  0
 42 41  2  0  0  0  0
 43 42  1  0  0  0  0
M  END
>  <minimizedAffinity>
-4.16923714

$$$$
