
 OpenBabel09122222393D

 43 47  0  0  1  0  0  0  0  0999 V2000
    2.9350   -8.2320    4.6690 C   0  0  1  0  0  3  0  0  0  0  0  0
    2.9890   -8.3790    5.9720 N   0  0  0  0  0  0  0  0  0  0  0  0
    2.1370   -9.4360    6.8230 S   0  0  0  0  0  0  0  0  0  0  0  0
    2.8570  -10.6880    6.9400 O   0  0  0  0  0  0  0  0  0  0  0  0
    1.6350   -8.7820    8.0160 O   0  0  0  0  0  0  0  0  0  0  0  0
    0.7270   -9.7880    5.8300 C   0  0  0  0  0  0  0  0  0  0  0  0
   -0.4610  -10.2060    6.4340 C   0  0  0  0  0  3  0  0  0  0  0  0
   -1.5870  -10.3780    5.6380 C   0  0  0  0  0  0  0  0  0  0  0  0
   -1.5050  -10.1870    4.2580 C   0  0  0  0  0  3  0  0  0  0  0  0
   -0.2990   -9.7890    3.6690 C   0  0  0  0  0  3  0  0  0  0  0  0
    0.8260   -9.5530    4.4620 C   0  0  0  0  0  0  0  0  0  0  0  0
    1.9660   -8.9540    3.9300 N   0  0  0  0  0  0  0  0  0  0  0  0
    3.6520   -7.8120    6.4910 H   0  0  0  0  0  0  0  0  0  0  0  0
    2.0300   -8.8450    2.9170 H   0  0  0  0  0  0  0  0  0  0  0  0
    5.5370   -7.0000    2.2170 N   0  0  0  0  0  0  0  0  0  0  0  0
    4.4230   -7.6650    2.6740 C   0  0  0  0  0  0  0  0  0  0  0  0
    3.9500   -8.6680    2.1310 O   0  0  0  0  0  0  0  0  0  0  0  0
    3.8290   -7.2320    3.9780 C   0  0  0  0  0  0  0  0  0  0  0  0
    4.2350   -6.0670    4.5120 C   0  0  0  0  0  0  0  0  0  0  0  0
    5.1940   -5.2020    3.8040 C   0  0  0  0  0  0  0  0  0  0  0  0
    5.4750   -3.8810    4.1790 C   0  0  0  0  0  3  0  0  0  0  0  0
    6.4640   -3.1620    3.5100 C   0  0  0  0  0  3  0  0  0  0  0  0
    7.1420   -3.7860    2.4820 C   0  0  0  0  0  3  0  0  0  0  0  0
    6.8770   -5.0430    2.0750 N   0  0  0  0  0  0  0  0  0  0  0  0
    5.8960   -5.7240    2.7120 C   0  0  0  0  0  0  0  0  0  0  0  0
    3.8150   -5.6780    5.7760 O   0  0  0  0  0  0  0  0  0  0  0  0
    4.4330   -5.0130    6.1330 H   0  0  0  0  0  0  0  0  0  0  0  0
    6.3860   -7.6210    1.1970 C   0  0  0  0  0  2  0  0  0  0  0  0
    5.6780   -7.7430   -0.1670 C   0  0  0  0  0  2  0  0  0  0  0  0
    4.4260   -5.5250   -0.3660 C   0  0  0  0  0  1  0  0  0  0  0  0
    5.5160   -6.4220   -0.9510 C   0  0  0  0  0  3  0  0  0  0  0  0
    6.8440   -5.6590   -0.9740 C   0  0  0  0  0  1  0  0  0  0  0  0
   -2.8460  -10.5950    6.2580 N   0  0  0  0  0  0  0  0  0  0  0  0
   -3.2890  -11.5090    6.1550 H   0  0  0  0  0  0  0  0  0  0  0  0
   -3.0690   -9.9850    7.8300 S   0  0  0  0  0  0  0  0  0  0  0  0
   -4.1740  -10.6880    8.4460 O   0  0  0  0  0  0  0  0  0  0  0  0
   -1.7570   -9.9460    8.4400 O   0  0  0  0  0  0  0  0  0  0  0  0
   -3.5770   -8.3020    7.5390 C   0  0  0  0  0  0  0  0  0  0  0  0
   -4.6340   -7.7550    8.2760 C   0  0  0  0  0  3  0  0  0  0  0  0
   -5.0480   -6.4490    8.0150 C   0  0  0  0  0  3  0  0  0  0  0  0
   -4.4040   -5.6960    7.0300 C   0  0  0  0  0  3  0  0  0  0  0  0
   -3.3360   -6.2410    6.3140 C   0  0  0  0  0  3  0  0  0  0  0  0
   -2.9110   -7.5440    6.5710 C   0  0  0  0  0  3  0  0  0  0  0  0
  1 18  1  1  0  0  0
  1  2  1  0  0  0  0
  2 13  1  0  0  0  0
  2  3  1  0  0  0  0
  3  4  2  0  0  0  0
  3  5  2  0  0  0  0
  6  7  1  0  0  0  0
  6  3  1  0  0  0  0
  8 33  1  0  0  0  0
  8  7  2  0  0  0  0
  9  8  1  0  0  0  0
 10  9  2  0  0  0  0
 10 11  1  0  0  0  0
 11  6  2  0  0  0  0
 12 11  1  0  0  0  0
 12  1  1  0  0  0  0
 14 12  1  0  0  0  0
 15 16  1  0  0  0  0
 15 25  1  0  0  0  0
 16 18  1  0  0  0  0
 17 16  2  0  0  0  0
 18 19  2  0  0  0  0
 19 26  1  0  0  0  0
 20 21  1  0  0  0  0
 20 19  1  0  0  0  0
 22 21  2  0  0  0  0
 23 22  1  0  0  0  0
 24 23  2  0  0  0  0
 24 25  1  0  0  0  0
 25 20  2  0  0  0  0
 26 27  1  0  0  0  0
 28 15  1  0  0  0  0
 29 28  1  0  0  0  0
 31 30  1  0  0  0  0
 31 29  1  0  0  0  0
 32 31  1  0  0  0  0
 33 35  1  0  0  0  0
 34 33  1  0  0  0  0
 35 37  2  0  0  0  0
 35 36  2  0  0  0  0
 38 35  1  0  0  0  0
 38 39  1  0  0  0  0
 40 39  2  0  0  0  0
 41 40  1  0  0  0  0
 42 43  1  0  0  0  0
 42 41  2  0  0  0  0
 43 38  2  0  0  0  0
M  END
>  <minimizedAffinity>
-4.67164993

$$$$
