
 OpenBabel09122222393D

 43 47  0  0  1  0  0  0  0  0999 V2000
    2.2480  -10.0730    3.6070 C   0  0  1  0  0  3  0  0  0  0  0  0
    1.7760   -9.6680    2.4520 N   0  0  0  0  0  0  0  0  0  0  0  0
    2.6380   -9.4620    1.1170 S   0  0  0  0  0  0  0  0  0  0  0  0
    2.6780  -10.6880    0.3460 O   0  0  0  0  0  0  0  0  0  0  0  0
    2.2270   -8.2260    0.4790 O   0  0  0  0  0  0  0  0  0  0  0  0
    4.2860   -9.1960    1.6770 C   0  0  0  0  0  0  0  0  0  0  0  0
    5.1760   -8.4610    0.8920 C   0  0  0  0  0  3  0  0  0  0  0  0
    6.4380   -8.1800    1.4040 C   0  0  0  0  0  0  0  0  0  0  0  0
    6.8130   -8.6750    2.6540 C   0  0  0  0  0  3  0  0  0  0  0  0
    5.9120   -9.4290    3.4150 C   0  0  0  0  0  3  0  0  0  0  0  0
    4.6210   -9.6690    2.9430 C   0  0  0  0  0  0  0  0  0  0  0  0
    3.6470  -10.2270    3.7680 N   0  0  0  0  0  0  0  0  0  0  0  0
    0.7760   -9.5110    2.3700 H   0  0  0  0  0  0  0  0  0  0  0  0
    3.9360  -10.6120    4.6690 H   0  0  0  0  0  0  0  0  0  0  0  0
   -1.0510  -10.2320    5.4490 N   0  0  0  0  0  0  0  0  0  0  0  0
   -0.1300  -10.4570    4.4520 C   0  0  0  0  0  0  0  0  0  0  0  0
   -0.4310  -10.6880    3.2770 O   0  0  0  0  0  0  0  0  0  0  0  0
    1.3200  -10.2780    4.7790 C   0  0  0  0  0  0  0  0  0  0  0  0
    1.6770  -10.1670    6.0700 C   0  0  0  0  0  0  0  0  0  0  0  0
    0.6770  -10.2800    7.1450 C   0  0  0  0  0  0  0  0  0  0  0  0
    1.0040  -10.4130    8.5020 C   0  0  0  0  0  3  0  0  0  0  0  0
   -0.0040  -10.4230    9.4640 C   0  0  0  0  0  3  0  0  0  0  0  0
   -1.3110  -10.3010    9.0410 C   0  0  0  0  0  3  0  0  0  0  0  0
   -1.6640  -10.2030    7.7430 N   0  0  0  0  0  0  0  0  0  0  0  0
   -0.6810  -10.2220    6.8140 C   0  0  0  0  0  0  0  0  0  0  0  0
    2.9860   -9.8720    6.4240 O   0  0  0  0  0  0  0  0  0  0  0  0
    3.0040   -9.5100    7.3300 H   0  0  0  0  0  0  0  0  0  0  0  0
   -2.4530   -9.9890    5.1000 C   0  0  0  0  0  2  0  0  0  0  0  0
   -2.6550   -8.6550    4.3540 C   0  0  0  0  0  2  0  0  0  0  0  0
   -3.6760   -7.7240    6.5030 C   0  0  0  0  0  1  0  0  0  0  0  0
   -2.8520   -7.4150    5.2540 C   0  0  0  0  0  3  0  0  0  0  0  0
   -1.4910   -6.8480    5.6700 C   0  0  0  0  0  1  0  0  0  0  0  0
    7.2740   -7.2610    0.7160 N   0  0  0  0  0  0  0  0  0  0  0  0
    7.8810   -7.6150   -0.0240 H   0  0  0  0  0  0  0  0  0  0  0  0
    6.6110   -5.7540    0.2880 S   0  0  0  0  0  0  0  0  0  0  0  0
    7.6910   -4.8500   -0.0410 O   0  0  0  0  0  0  0  0  0  0  0  0
    5.5400   -6.0320   -0.6460 O   0  0  0  0  0  0  0  0  0  0  0  0
    5.8670   -5.1970    1.8080 C   0  0  0  0  0  0  0  0  0  0  0  0
    6.5900   -4.3750    2.6790 C   0  0  0  0  0  3  0  0  0  0  0  0
    6.0120   -3.9750    3.8840 C   0  0  0  0  0  3  0  0  0  0  0  0
    4.7190   -4.3890    4.2090 C   0  0  0  0  0  3  0  0  0  0  0  0
    3.9940   -5.1920    3.3260 C   0  0  0  0  0  3  0  0  0  0  0  0
    4.5610   -5.5930    2.1160 C   0  0  0  0  0  3  0  0  0  0  0  0
  1 12  1  0  0  0  0
  1 18  1  1  0  0  0
  2  1  1  0  0  0  0
  3  6  1  0  0  0  0
  3  2  1  0  0  0  0
  4  3  2  0  0  0  0
  5  3  2  0  0  0  0
  6 11  1  0  0  0  0
  7  8  1  0  0  0  0
  7  6  2  0  0  0  0
  8  9  2  0  0  0  0
  9 10  1  0  0  0  0
 11 10  2  0  0  0  0
 11 12  1  0  0  0  0
 12 14  1  0  0  0  0
 13  2  1  0  0  0  0
 15 25  1  0  0  0  0
 16 18  1  0  0  0  0
 16 15  1  0  0  0  0
 17 16  2  0  0  0  0
 18 19  2  0  0  0  0
 19 26  1  0  0  0  0
 19 20  1  0  0  0  0
 20 21  1  0  0  0  0
 21 22  2  0  0  0  0
 23 22  1  0  0  0  0
 24 23  2  0  0  0  0
 25 20  2  0  0  0  0
 25 24  1  0  0  0  0
 26 27  1  0  0  0  0
 28 15  1  0  0  0  0
 29 28  1  0  0  0  0
 29 31  1  0  0  0  0
 31 32  1  0  0  0  0
 31 30  1  0  0  0  0
 33  8  1  0  0  0  0
 34 33  1  0  0  0  0
 35 33  1  0  0  0  0
 35 38  1  0  0  0  0
 36 35  2  0  0  0  0
 37 35  2  0  0  0  0
 38 43  2  0  0  0  0
 38 39  1  0  0  0  0
 39 40  2  0  0  0  0
 40 41  1  0  0  0  0
 42 41  2  0  0  0  0
 43 42  1  0  0  0  0
M  END
>  <minimizedAffinity>
-5.75874233

$$$$
