
 OpenBabel09122222393D

 43 47  0  0  1  0  0  0  0  0999 V2000
    1.5260   -9.4210    3.6080 C   0  0  1  0  0  3  0  0  0  0  0  0
    1.2450   -9.2220    2.3420 N   0  0  0  0  0  0  0  0  0  0  0  0
    2.2870   -9.3350    1.1300 S   0  0  0  0  0  0  0  0  0  0  0  0
    2.3170  -10.6890    0.6140 O   0  0  0  0  0  0  0  0  0  0  0  0
    2.0740   -8.2250    0.2230 O   0  0  0  0  0  0  0  0  0  0  0  0
    3.8650   -9.0690    1.8640 C   0  0  0  0  0  0  0  0  0  0  0  0
    4.9120   -8.5590    1.0920 C   0  0  0  0  0  3  0  0  0  0  0  0
    6.1160   -8.2620    1.7190 C   0  0  0  0  0  0  0  0  0  0  0  0
    6.2810   -8.5250    3.0800 C   0  0  0  0  0  3  0  0  0  0  0  0
    5.2270   -9.0580    3.8300 C   0  0  0  0  0  3  0  0  0  0  0  0
    3.9910   -9.3040    3.2300 C   0  0  0  0  0  0  0  0  0  0  0  0
    2.8720   -9.6280    3.9950 N   0  0  0  0  0  0  0  0  0  0  0  0
    0.2820   -9.0210    2.0900 H   0  0  0  0  0  0  0  0  0  0  0  0
    3.0070   -9.8460    4.9830 H   0  0  0  0  0  0  0  0  0  0  0  0
    0.0330   -8.9110    7.0460 N   0  0  0  0  0  0  0  0  0  0  0  0
    0.8080   -8.6600    5.9370 C   0  0  0  0  0  0  0  0  0  0  0  0
    1.8520   -8.0020    5.9630 O   0  0  0  0  0  0  0  0  0  0  0  0
    0.4390   -9.3340    4.6520 C   0  0  0  0  0  0  0  0  0  0  0  0
   -0.7600   -9.9360    4.5650 C   0  0  0  0  0  0  0  0  0  0  0  0
   -1.7180   -9.8810    5.6820 C   0  0  0  0  0  0  0  0  0  0  0  0
   -3.0600  -10.2720    5.5770 C   0  0  0  0  0  3  0  0  0  0  0  0
   -3.8760  -10.2750    6.7060 C   0  0  0  0  0  3  0  0  0  0  0  0
   -3.3260   -9.8840    7.9100 C   0  0  0  0  0  3  0  0  0  0  0  0
   -2.0490   -9.4730    8.0420 N   0  0  0  0  0  0  0  0  0  0  0  0
   -1.2710   -9.4470    6.9350 C   0  0  0  0  0  0  0  0  0  0  0  0
   -1.1020  -10.6830    3.4470 O   0  0  0  0  0  0  0  0  0  0  0  0
   -1.8250  -11.2970    3.6760 H   0  0  0  0  0  0  0  0  0  0  0  0
    0.5630   -8.6260    8.3810 C   0  0  0  0  0  2  0  0  0  0  0  0
    0.4090   -7.1440    8.7760 C   0  0  0  0  0  2  0  0  0  0  0  0
    2.9580   -7.0740    8.9310 C   0  0  0  0  0  1  0  0  0  0  0  0
    1.6400   -6.5070    9.4580 C   0  0  0  0  0  3  0  0  0  0  0  0
    1.6230   -4.9890    9.2570 C   0  0  0  0  0  1  0  0  0  0  0  0
    7.1130   -7.5510    1.0000 N   0  0  0  0  0  0  0  0  0  0  0  0
    7.6880   -8.0610    0.3290 H   0  0  0  0  0  0  0  0  0  0  0  0
    6.7110   -6.0080    0.4050 S   0  0  0  0  0  0  0  0  0  0  0  0
    7.9320   -5.3110    0.0660 O   0  0  0  0  0  0  0  0  0  0  0  0
    5.6550   -6.2100   -0.5640 O   0  0  0  0  0  0  0  0  0  0  0  0
    5.9920   -5.2060    1.8240 C   0  0  0  0  0  0  0  0  0  0  0  0
    6.7900   -4.4110    2.6550 C   0  0  0  0  0  3  0  0  0  0  0  0
    6.2250   -3.8170    3.7840 C   0  0  0  0  0  3  0  0  0  0  0  0
    4.8730   -4.0130    4.0740 C   0  0  0  0  0  3  0  0  0  0  0  0
    4.0780   -4.7900    3.2290 C   0  0  0  0  0  3  0  0  0  0  0  0
    4.6310   -5.3840    2.0950 C   0  0  0  0  0  3  0  0  0  0  0  0
  1 12  1  0  0  0  0
  1 18  1  1  0  0  0
  2  1  1  0  0  0  0
  3  6  1  0  0  0  0
  3  2  1  0  0  0  0
  4  3  2  0  0  0  0
  5  3  2  0  0  0  0
  6 11  1  0  0  0  0
  7  8  1  0  0  0  0
  7  6  2  0  0  0  0
  8  9  2  0  0  0  0
  9 10  1  0  0  0  0
 11 10  2  0  0  0  0
 11 12  1  0  0  0  0
 12 14  1  0  0  0  0
 13  2  1  0  0  0  0
 15 28  1  0  0  0  0
 16 17  2  0  0  0  0
 16 15  1  0  0  0  0
 18 16  1  0  0  0  0
 19 18  2  0  0  0  0
 19 20  1  0  0  0  0
 20 25  1  0  0  0  0
 21 20  2  0  0  0  0
 21 22  1  0  0  0  0
 22 23  2  0  0  0  0
 23 24  1  0  0  0  0
 25 15  1  0  0  0  0
 25 24  2  0  0  0  0
 26 27  1  0  0  0  0
 26 19  1  0  0  0  0
 28 29  1  0  0  0  0
 29 31  1  0  0  0  0
 30 31  1  0  0  0  0
 32 31  1  0  0  0  0
 33  8  1  0  0  0  0
 34 33  1  0  0  0  0
 35 33  1  0  0  0  0
 35 38  1  0  0  0  0
 36 35  2  0  0  0  0
 37 35  2  0  0  0  0
 38 43  2  0  0  0  0
 38 39  1  0  0  0  0
 39 40  2  0  0  0  0
 40 41  1  0  0  0  0
 42 41  2  0  0  0  0
 43 42  1  0  0  0  0
M  END
>  <minimizedAffinity>
-6.23157263

$$$$
