
 OpenBabel09122222393D

 43 47  0  0  1  0  0  0  0  0999 V2000
    2.1520   -7.0350    5.9030 C   0  0  1  0  0  3  0  0  0  0  0  0
    2.5400   -6.2000    4.9680 N   0  0  0  0  0  0  0  0  0  0  0  0
    3.9570   -5.4530    4.9200 S   0  0  0  0  0  0  0  0  0  0  0  0
    4.9270   -6.2560    4.2040 O   0  0  0  0  0  0  0  0  0  0  0  0
    3.7460   -4.0710    4.5360 O   0  0  0  0  0  0  0  0  0  0  0  0
    4.5070   -5.4160    6.5920 C   0  0  0  0  0  0  0  0  0  0  0  0
    5.3810   -4.4110    7.0130 C   0  0  0  0  0  3  0  0  0  0  0  0
    5.7190   -4.3460    8.3590 C   0  0  0  0  0  0  0  0  0  0  0  0
    5.2320   -5.3030    9.2510 C   0  0  0  0  0  3  0  0  0  0  0  0
    4.3760   -6.3150    8.8040 C   0  0  0  0  0  3  0  0  0  0  0  0
    3.9780   -6.3600    7.4660 C   0  0  0  0  0  0  0  0  0  0  0  0
    2.9660   -7.2210    7.0470 N   0  0  0  0  0  0  0  0  0  0  0  0
    1.9180   -6.0380    4.1820 H   0  0  0  0  0  0  0  0  0  0  0  0
    2.6370   -7.9370    7.6970 H   0  0  0  0  0  0  0  0  0  0  0  0
   -1.1380   -8.4350    7.1350 N   0  0  0  0  0  0  0  0  0  0  0  0
   -0.1110   -7.5340    6.9740 C   0  0  0  0  0  0  0  0  0  0  0  0
    0.1660   -6.6540    7.7930 O   0  0  0  0  0  0  0  0  0  0  0  0
    0.8090   -7.7150    5.8060 C   0  0  0  0  0  0  0  0  0  0  0  0
    0.4490   -8.5720    4.8340 C   0  0  0  0  0  0  0  0  0  0  0  0
   -0.8470   -9.2700    4.8800 C   0  0  0  0  0  0  0  0  0  0  0  0
   -1.3870   -9.9810    3.8000 C   0  0  0  0  0  3  0  0  0  0  0  0
   -2.5770  -10.6890    3.9560 C   0  0  0  0  0  3  0  0  0  0  0  0
   -3.1940  -10.6640    5.1900 C   0  0  0  0  0  3  0  0  0  0  0  0
   -2.7200   -9.9650    6.2420 N   0  0  0  0  0  0  0  0  0  0  0  0
   -1.5790   -9.2580    6.0730 C   0  0  0  0  0  0  0  0  0  0  0  0
    1.3170   -8.8750    3.7950 O   0  0  0  0  0  0  0  0  0  0  0  0
    1.0520   -9.7200    3.3860 H   0  0  0  0  0  0  0  0  0  0  0  0
   -1.7960   -8.5600    8.4380 C   0  0  0  0  0  2  0  0  0  0  0  0
   -2.8000   -7.4220    8.7060 C   0  0  0  0  0  2  0  0  0  0  0  0
   -5.0940   -8.5430    8.6200 C   0  0  0  0  0  1  0  0  0  0  0  0
   -4.1490   -7.5380    7.9630 C   0  0  0  0  0  3  0  0  0  0  0  0
   -4.8300   -6.1680    7.8950 C   0  0  0  0  0  1  0  0  0  0  0  0
    6.4290   -3.2140    8.8400 N   0  0  0  0  0  0  0  0  0  0  0  0
    7.3970   -3.3370    9.1380 H   0  0  0  0  0  0  0  0  0  0  0  0
    6.2330   -1.7440    8.0060 S   0  0  0  0  0  0  0  0  0  0  0  0
    6.8830   -0.6940    8.7610 O   0  0  0  0  0  0  0  0  0  0  0  0
    6.5740   -2.0120    6.6250 O   0  0  0  0  0  0  0  0  0  0  0  0
    4.4740   -1.4710    8.0830 C   0  0  0  0  0  0  0  0  0  0  0  0
    3.7050   -1.5480    6.9160 C   0  0  0  0  0  3  0  0  0  0  0  0
    2.3340   -1.2970    6.9810 C   0  0  0  0  0  3  0  0  0  0  0  0
    1.7390   -0.9790    8.2040 C   0  0  0  0  0  3  0  0  0  0  0  0
    2.5090   -0.9260    9.3680 C   0  0  0  0  0  3  0  0  0  0  0  0
    3.8790   -1.1810    9.3150 C   0  0  0  0  0  3  0  0  0  0  0  0
  1 18  1  1  0  0  0
  1 12  1  0  0  0  0
  2  1  1  0  0  0  0
  3  2  1  0  0  0  0
  3  6  1  0  0  0  0
  4  3  2  0  0  0  0
  5  3  2  0  0  0  0
  6  7  2  0  0  0  0
  6 11  1  0  0  0  0
  7  8  1  0  0  0  0
  8 33  1  0  0  0  0
  8  9  2  0  0  0  0
 10  9  1  0  0  0  0
 11 10  2  0  0  0  0
 12 11  1  0  0  0  0
 12 14  1  0  0  0  0
 13  2  1  0  0  0  0
 15 28  1  0  0  0  0
 16 15  1  0  0  0  0
 16 17  2  0  0  0  0
 18 16  1  0  0  0  0
 19 20  1  0  0  0  0
 19 18  2  0  0  0  0
 20 25  1  0  0  0  0
 21 22  1  0  0  0  0
 21 20  2  0  0  0  0
 22 23  2  0  0  0  0
 23 24  1  0  0  0  0
 25 24  2  0  0  0  0
 25 15  1  0  0  0  0
 26 19  1  0  0  0  0
 27 26  1  0  0  0  0
 28 29  1  0  0  0  0
 31 30  1  0  0  0  0
 31 29  1  0  0  0  0
 32 31  1  0  0  0  0
 33 34  1  0  0  0  0
 35 38  1  0  0  0  0
 35 36  2  0  0  0  0
 35 33  1  0  0  0  0
 37 35  2  0  0  0  0
 38 43  1  0  0  0  0
 39 40  1  0  0  0  0
 39 38  2  0  0  0  0
 40 41  2  0  0  0  0
 41 42  1  0  0  0  0
 43 42  2  0  0  0  0
M  END
>  <minimizedAffinity>
-5.82844543

$$$$
