
 OpenBabel09122222393D

 43 47  0  0  1  0  0  0  0  0999 V2000
    2.9710   -6.6110    5.4240 C   0  0  1  0  0  3  0  0  0  0  0  0
    3.2330   -7.8540    5.0960 N   0  0  0  0  0  0  0  0  0  0  0  0
    2.1500   -8.9380    4.6260 S   0  0  0  0  0  0  0  0  0  0  0  0
    1.9840   -8.8950    3.1880 O   0  0  0  0  0  0  0  0  0  0  0  0
    2.4360  -10.2000    5.2790 O   0  0  0  0  0  0  0  0  0  0  0  0
    0.6240   -8.3760    5.3000 C   0  0  0  0  0  0  0  0  0  0  0  0
   -0.3940   -9.2920    5.5720 C   0  0  0  0  0  3  0  0  0  0  0  0
   -1.5490   -8.8370    6.1980 C   0  0  0  0  0  0  0  0  0  0  0  0
   -1.6970   -7.4810    6.4930 C   0  0  0  0  0  3  0  0  0  0  0  0
   -0.6740   -6.5750    6.1910 C   0  0  0  0  0  3  0  0  0  0  0  0
    0.5170   -7.0250    5.6180 C   0  0  0  0  0  0  0  0  0  0  0  0
    1.6230   -6.1850    5.5090 N   0  0  0  0  0  0  0  0  0  0  0  0
    4.2020   -8.1560    5.0940 H   0  0  0  0  0  0  0  0  0  0  0  0
    1.4980   -5.1890    5.6990 H   0  0  0  0  0  0  0  0  0  0  0  0
    4.9250   -4.2230    7.6120 N   0  0  0  0  0  0  0  0  0  0  0  0
    4.2270   -5.3550    7.2580 C   0  0  0  0  0  0  0  0  0  0  0  0
    3.6130   -6.0630    8.0610 O   0  0  0  0  0  0  0  0  0  0  0  0
    4.0910   -5.6720    5.8010 C   0  0  0  0  0  0  0  0  0  0  0  0
    4.8600   -5.0020    4.9250 C   0  0  0  0  0  0  0  0  0  0  0  0
    5.8600   -4.0250    5.3870 C   0  0  0  0  0  0  0  0  0  0  0  0
    6.8490   -3.4730    4.5610 C   0  0  0  0  0  3  0  0  0  0  0  0
    7.7000   -2.4860    5.0560 C   0  0  0  0  0  3  0  0  0  0  0  0
    7.5370   -2.0790    6.3640 C   0  0  0  0  0  3  0  0  0  0  0  0
    6.6170   -2.6090    7.1960 N   0  0  0  0  0  0  0  0  0  0  0  0
    5.8140   -3.5870    6.7150 C   0  0  0  0  0  0  0  0  0  0  0  0
    4.6860   -5.1620    3.5570 O   0  0  0  0  0  0  0  0  0  0  0  0
    5.0680   -4.3950    3.0900 H   0  0  0  0  0  0  0  0  0  0  0  0
    4.7460   -3.6490    8.9480 C   0  0  0  0  0  2  0  0  0  0  0  0
    3.4180   -2.8790    9.0890 C   0  0  0  0  0  2  0  0  0  0  0  0
    1.8900   -1.1070    8.0620 C   0  0  0  0  0  1  0  0  0  0  0  0
    3.3320   -1.5540    8.3000 C   0  0  0  0  0  3  0  0  0  0  0  0
    4.0910   -0.4510    9.0450 C   0  0  0  0  0  1  0  0  0  0  0  0
   -2.4980   -9.7820    6.6710 N   0  0  0  0  0  0  0  0  0  0  0  0
   -2.3950  -10.7570    6.3910 H   0  0  0  0  0  0  0  0  0  0  0  0
   -2.9900   -9.6640    8.2950 S   0  0  0  0  0  0  0  0  0  0  0  0
   -2.3080  -10.6860    9.0600 O   0  0  0  0  0  0  0  0  0  0  0  0
   -2.8990   -8.2630    8.6460 O   0  0  0  0  0  0  0  0  0  0  0  0
   -4.7190  -10.0890    8.2220 C   0  0  0  0  0  0  0  0  0  0  0  0
   -5.3180  -10.3640    6.9880 C   0  0  0  0  0  3  0  0  0  0  0  0
   -6.6810  -10.6600    6.9380 C   0  0  0  0  0  3  0  0  0  0  0  0
   -7.4330  -10.6870    8.1140 C   0  0  0  0  0  3  0  0  0  0  0  0
   -6.8240  -10.4330    9.3450 C   0  0  0  0  0  3  0  0  0  0  0  0
   -5.4610  -10.1410    9.4060 C   0  0  0  0  0  3  0  0  0  0  0  0
  1 12  1  0  0  0  0
  1 18  1  1  0  0  0
  2  1  1  0  0  0  0
  3  2  1  0  0  0  0
  3  5  2  0  0  0  0
  3  6  1  0  0  0  0
  4  3  2  0  0  0  0
  6  7  2  0  0  0  0
  6 11  1  0  0  0  0
  7  8  1  0  0  0  0
  8  9  2  0  0  0  0
  8 33  1  0  0  0  0
 10  9  1  0  0  0  0
 11 10  2  0  0  0  0
 12 11  1  0  0  0  0
 12 14  1  0  0  0  0
 13  2  1  0  0  0  0
 15 28  1  0  0  0  0
 16 15  1  0  0  0  0
 16 17  2  0  0  0  0
 18 16  1  0  0  0  0
 19 20  1  0  0  0  0
 19 18  2  0  0  0  0
 20 25  1  0  0  0  0
 21 22  1  0  0  0  0
 21 20  2  0  0  0  0
 22 23  2  0  0  0  0
 23 24  1  0  0  0  0
 25 24  2  0  0  0  0
 25 15  1  0  0  0  0
 26 19  1  0  0  0  0
 27 26  1  0  0  0  0
 28 29  1  0  0  0  0
 30 31  1  0  0  0  0
 31 32  1  0  0  0  0
 31 29  1  0  0  0  0
 33 35  1  0  0  0  0
 34 33  1  0  0  0  0
 35 37  2  0  0  0  0
 35 36  2  0  0  0  0
 38 35  1  0  0  0  0
 38 43  1  0  0  0  0
 39 38  2  0  0  0  0
 40 39  1  0  0  0  0
 40 41  2  0  0  0  0
 41 42  1  0  0  0  0
 42 43  2  0  0  0  0
M  END
>  <minimizedAffinity>
-4.63174677

$$$$
