
 OpenBabel09122222393D

 43 47  0  0  1  0  0  0  0  0999 V2000
    0.9650   -6.7430    6.8840 C   0  0  1  0  0  3  0  0  0  0  0  0
    2.0150   -7.2100    7.5160 N   0  0  0  0  0  0  0  0  0  0  0  0
    3.4870   -6.5770    7.4660 S   0  0  0  0  0  0  0  0  0  0  0  0
    3.6490   -5.5930    8.5170 O   0  0  0  0  0  0  0  0  0  0  0  0
    4.4540   -7.6480    7.3300 O   0  0  0  0  0  0  0  0  0  0  0  0
    3.5410   -5.6750    5.9550 C   0  0  0  0  0  0  0  0  0  0  0  0
    4.7660   -5.4620    5.3180 C   0  0  0  0  0  3  0  0  0  0  0  0
    4.7690   -4.8370    4.0760 C   0  0  0  0  0  0  0  0  0  0  0  0
    3.5730   -4.3880    3.5150 C   0  0  0  0  0  3  0  0  0  0  0  0
    2.3590   -4.5910    4.1810 C   0  0  0  0  0  3  0  0  0  0  0  0
    2.3310   -5.2710    5.4000 C   0  0  0  0  0  0  0  0  0  0  0  0
    1.1240   -5.6720    5.9710 N   0  0  0  0  0  0  0  0  0  0  0  0
    1.8910   -8.0130    8.1250 H   0  0  0  0  0  0  0  0  0  0  0  0
    0.2550   -5.3150    5.5710 H   0  0  0  0  0  0  0  0  0  0  0  0
   -2.5330   -7.8160    5.9260 N   0  0  0  0  0  0  0  0  0  0  0  0
   -1.1770   -7.6180    5.8040 C   0  0  0  0  0  0  0  0  0  0  0  0
   -0.5940   -7.4960    4.7230 O   0  0  0  0  0  0  0  0  0  0  0  0
   -0.3820   -7.4020    7.0550 C   0  0  0  0  0  0  0  0  0  0  0  0
   -0.9630   -7.6680    8.2380 C   0  0  0  0  0  0  0  0  0  0  0  0
   -2.3270   -8.2180    8.3050 C   0  0  0  0  0  0  0  0  0  0  0  0
   -2.9000   -8.7370    9.4740 C   0  0  0  0  0  3  0  0  0  0  0  0
   -4.2300   -9.1550    9.4730 C   0  0  0  0  0  3  0  0  0  0  0  0
   -4.9480   -9.0420    8.3000 C   0  0  0  0  0  3  0  0  0  0  0  0
   -4.4210   -8.5760    7.1500 N   0  0  0  0  0  0  0  0  0  0  0  0
   -3.1210   -8.1990    7.1530 C   0  0  0  0  0  0  0  0  0  0  0  0
   -0.3210   -7.3660    9.4300 O   0  0  0  0  0  0  0  0  0  0  0  0
   -0.9790   -7.3080   10.1480 H   0  0  0  0  0  0  0  0  0  0  0  0
   -3.4010   -7.6220    4.7610 C   0  0  0  0  0  2  0  0  0  0  0  0
   -2.9680   -8.4740    3.5510 C   0  0  0  0  0  2  0  0  0  0  0  0
   -3.6880  -10.6740    2.4700 C   0  0  0  0  0  1  0  0  0  0  0  0
   -3.1280  -10.0000    3.7230 C   0  0  0  0  0  3  0  0  0  0  0  0
   -1.7800  -10.6320    4.0810 C   0  0  0  0  0  1  0  0  0  0  0  0
    5.9720   -4.8030    3.3220 N   0  0  0  0  0  0  0  0  0  0  0  0
    6.8600   -4.9000    3.8170 H   0  0  0  0  0  0  0  0  0  0  0  0
    6.0040   -5.6450    1.8440 S   0  0  0  0  0  0  0  0  0  0  0  0
    5.0620   -5.0250    0.9390 O   0  0  0  0  0  0  0  0  0  0  0  0
    7.4010   -5.8040    1.4980 O   0  0  0  0  0  0  0  0  0  0  0  0
    5.3730   -7.2520    2.2850 C   0  0  0  0  0  0  0  0  0  0  0  0
    6.2330   -8.2160    2.8220 C   0  0  0  0  0  3  0  0  0  0  0  0
    5.7370   -9.4830    3.1290 C   0  0  0  0  0  3  0  0  0  0  0  0
    4.3910   -9.7780    2.9060 C   0  0  0  0  0  3  0  0  0  0  0  0
    3.5330   -8.8050    2.3900 C   0  0  0  0  0  3  0  0  0  0  0  0
    4.0180   -7.5330    2.0850 C   0  0  0  0  0  3  0  0  0  0  0  0
  1 18  1  6  0  0  0
  1  2  1  0  0  0  0
  2 13  1  0  0  0  0
  3  2  1  0  0  0  0
  3  4  2  0  0  0  0
  5  3  2  0  0  0  0
  6  3  1  0  0  0  0
  7  6  2  0  0  0  0
  8  7  1  0  0  0  0
  9  8  2  0  0  0  0
  9 10  1  0  0  0  0
 10 11  2  0  0  0  0
 11  6  1  0  0  0  0
 11 12  1  0  0  0  0
 12  1  1  0  0  0  0
 14 12  1  0  0  0  0
 15 25  1  0  0  0  0
 16 15  1  0  0  0  0
 16 18  1  0  0  0  0
 17 16  2  0  0  0  0
 18 19  2  0  0  0  0
 19 20  1  0  0  0  0
 19 26  1  0  0  0  0
 20 21  1  0  0  0  0
 22 21  2  0  0  0  0
 23 22  1  0  0  0  0
 24 25  1  0  0  0  0
 24 23  2  0  0  0  0
 25 20  2  0  0  0  0
 26 27  1  0  0  0  0
 28 15  1  0  0  0  0
 29 31  1  0  0  0  0
 29 28  1  0  0  0  0
 30 31  1  0  0  0  0
 31 32  1  0  0  0  0
 33 34  1  0  0  0  0
 33  8  1  0  0  0  0
 35 38  1  0  0  0  0
 35 33  1  0  0  0  0
 36 35  2  0  0  0  0
 37 35  2  0  0  0  0
 38 39  1  0  0  0  0
 39 40  2  0  0  0  0
 41 40  1  0  0  0  0
 42 41  2  0  0  0  0
 43 38  2  0  0  0  0
 43 42  1  0  0  0  0
M  END
>  <minimizedAffinity>
-5.85457802

$$$$
