
 OpenBabel09122222393D

 43 47  0  0  1  0  0  0  0  0999 V2000
    0.9510   -7.6190    7.8060 C   0  0  1  0  0  3  0  0  0  0  0  0
    2.1550   -8.0590    7.5290 N   0  0  0  0  0  0  0  0  0  0  0  0
    3.5140   -7.5280    8.1940 S   0  0  0  0  0  0  0  0  0  0  0  0
    3.8220   -8.2880    9.3880 O   0  0  0  0  0  0  0  0  0  0  0  0
    4.5170   -7.3810    7.1570 O   0  0  0  0  0  0  0  0  0  0  0  0
    3.1410   -5.8990    8.7470 C   0  0  0  0  0  0  0  0  0  0  0  0
    4.1640   -4.9550    8.8640 C   0  0  0  0  0  3  0  0  0  0  0  0
    3.8280   -3.6500    9.2040 C   0  0  0  0  0  0  0  0  0  0  0  0
    2.5000   -3.3160    9.4730 C   0  0  0  0  0  3  0  0  0  0  0  0
    1.4930   -4.2830    9.3720 C   0  0  0  0  0  3  0  0  0  0  0  0
    1.8040   -5.5840    8.9720 C   0  0  0  0  0  0  0  0  0  0  0  0
    0.8010   -6.4980    8.6580 N   0  0  0  0  0  0  0  0  0  0  0  0
    2.2460   -8.8290    6.8730 H   0  0  0  0  0  0  0  0  0  0  0  0
   -0.1650   -6.2570    8.8850 H   0  0  0  0  0  0  0  0  0  0  0  0
   -2.1940   -9.7060    7.5600 N   0  0  0  0  0  0  0  0  0  0  0  0
   -1.3060   -8.7840    8.0650 C   0  0  0  0  0  0  0  0  0  0  0  0
   -1.2510   -8.4640    9.2560 O   0  0  0  0  0  0  0  0  0  0  0  0
   -0.2560   -8.2400    7.1470 C   0  0  0  0  0  0  0  0  0  0  0  0
   -0.3810   -8.4640    5.8270 C   0  0  0  0  0  0  0  0  0  0  0  0
   -1.5530   -9.1720    5.2860 C   0  0  0  0  0  0  0  0  0  0  0  0
   -1.8660   -9.2300    3.9210 C   0  0  0  0  0  3  0  0  0  0  0  0
   -2.9430   -9.9990    3.4840 C   0  0  0  0  0  3  0  0  0  0  0  0
   -3.6790  -10.6870    4.4280 C   0  0  0  0  0  3  0  0  0  0  0  0
   -3.4260  -10.6300    5.7510 N   0  0  0  0  0  0  0  0  0  0  0  0
   -2.3940   -9.8590    6.1680 C   0  0  0  0  0  0  0  0  0  0  0  0
    0.6240   -8.0950    4.9440 O   0  0  0  0  0  0  0  0  0  0  0  0
    0.5340   -8.6050    4.1180 H   0  0  0  0  0  0  0  0  0  0  0  0
   -2.9530  -10.5600    8.4760 C   0  0  0  0  0  2  0  0  0  0  0  0
   -3.8070   -9.7500    9.4710 C   0  0  0  0  0  2  0  0  0  0  0  0
   -4.9190   -7.8640    8.1530 C   0  0  0  0  0  1  0  0  0  0  0  0
   -5.1260   -9.1790    8.9040 C   0  0  0  0  0  3  0  0  0  0  0  0
   -5.7790  -10.2010    7.9690 C   0  0  0  0  0  1  0  0  0  0  0  0
    4.8190   -2.6360    9.1210 N   0  0  0  0  0  0  0  0  0  0  0  0
    5.8000   -2.9070    9.1980 H   0  0  0  0  0  0  0  0  0  0  0  0
    4.6150   -1.4230    7.9460 S   0  0  0  0  0  0  0  0  0  0  0  0
    3.4490   -0.6380    8.2900 O   0  0  0  0  0  0  0  0  0  0  0  0
    5.9150   -0.8150    7.7600 O   0  0  0  0  0  0  0  0  0  0  0  0
    4.2390   -2.3520    6.4720 C   0  0  0  0  0  0  0  0  0  0  0  0
    2.9870   -2.2190    5.8640 C   0  0  0  0  0  3  0  0  0  0  0  0
    2.6900   -2.9780    4.7310 C   0  0  0  0  0  3  0  0  0  0  0  0
    3.6420   -3.8560    4.2100 C   0  0  0  0  0  3  0  0  0  0  0  0
    4.8990   -3.9680    4.8100 C   0  0  0  0  0  3  0  0  0  0  0  0
    5.2070   -3.2090    5.9390 C   0  0  0  0  0  3  0  0  0  0  0  0
  1 18  1  6  0  0  0
  1 12  1  0  0  0  0
  2  1  1  0  0  0  0
  2  3  1  0  0  0  0
  3  6  1  0  0  0  0
  3  4  2  0  0  0  0
  5  3  2  0  0  0  0
  6  7  2  0  0  0  0
  6 11  1  0  0  0  0
  7  8  1  0  0  0  0
  8  9  2  0  0  0  0
 10  9  1  0  0  0  0
 11 10  2  0  0  0  0
 12 14  1  0  0  0  0
 12 11  1  0  0  0  0
 13  2  1  0  0  0  0
 15 16  1  0  0  0  0
 15 28  1  0  0  0  0
 16 17  2  0  0  0  0
 18 16  1  0  0  0  0
 19 18  2  0  0  0  0
 20 19  1  0  0  0  0
 20 25  1  0  0  0  0
 21 20  2  0  0  0  0
 22 21  1  0  0  0  0
 22 23  2  0  0  0  0
 23 24  1  0  0  0  0
 24 25  2  0  0  0  0
 25 15  1  0  0  0  0
 26 19  1  0  0  0  0
 27 26  1  0  0  0  0
 28 29  1  0  0  0  0
 30 31  1  0  0  0  0
 31 29  1  0  0  0  0
 32 31  1  0  0  0  0
 33 34  1  0  0  0  0
 33  8  1  0  0  0  0
 35 36  2  0  0  0  0
 35 33  1  0  0  0  0
 37 35  2  0  0  0  0
 38 35  1  0  0  0  0
 39 38  2  0  0  0  0
 40 39  1  0  0  0  0
 41 40  2  0  0  0  0
 41 42  1  0  0  0  0
 42 43  2  0  0  0  0
 43 38  1  0  0  0  0
M  END
>  <minimizedAffinity>
-6.07608175

$$$$
