
 OpenBabel09122222393D

 41 46  0  0  1  0  0  0  0  0999 V2000
    4.7890   -4.6200    0.4570 O   0  0  0  0  0  0  0  0  0  0  0  0
    5.8630   -4.5050    1.0410 C   0  0  0  0  0  0  0  0  0  0  0  0
    7.0590   -4.6090    0.3930 N   0  0  0  0  0  0  0  0  0  0  0  0
    7.0220   -4.8350   -0.5990 H   0  0  0  0  0  0  0  0  0  0  0  0
    5.8510   -4.2550    2.4960 C   0  0  0  0  0  0  0  0  0  0  0  0
    4.7200   -4.5690    3.2550 C   0  0  0  0  0  3  0  0  0  0  0  0
    4.6840   -4.3170    4.6300 C   0  0  0  0  0  3  0  0  0  0  0  0
    5.8090   -3.7120    5.2070 C   0  0  0  0  0  0  0  0  0  0  0  0
    6.9340   -3.3790    4.4550 C   0  0  0  0  0  0  0  0  0  0  0  0
    6.9620   -3.6340    3.0780 C   0  0  0  0  0  3  0  0  0  0  0  0
    7.9000   -2.8260    5.2490 N   0  0  0  0  0  0  0  0  0  0  0  0
    7.4420   -2.8760    6.4850 C   0  0  0  0  0  0  0  0  0  0  0  0
    6.1210   -3.2920    6.4890 N   0  0  0  0  0  0  0  0  0  0  0  0
    5.1940   -3.2290    7.6140 C   0  0  0  0  0  3  0  0  0  0  0  0
    4.0070   -2.2720    7.3950 C   0  0  0  0  0  2  0  0  0  0  0  0
    3.1150   -2.2060    8.6340 C   0  0  0  0  0  2  0  0  0  0  0  0
    2.6500   -3.5950    9.0640 C   0  0  0  0  0  2  0  0  0  0  0  0
    3.8280   -4.5380    9.2930 C   0  0  0  0  0  2  0  0  0  0  0  0
    4.7350   -4.6220    8.0680 C   0  0  0  0  0  2  0  0  0  0  0  0
    8.3320   -2.5240    7.6340 C   0  0  0  0  0  0  0  0  0  0  0  0
    9.2850   -3.2760    8.3620 C   0  0  0  0  0  3  0  0  0  0  0  0
    9.8200   -2.4190    9.2990 C   0  0  0  0  0  3  0  0  0  0  0  0
    9.2700   -1.1830    9.1840 O   0  0  0  0  0  0  0  0  0  0  0  0
    8.3810   -1.2500    8.1590 C   0  0  0  0  0  3  0  0  0  0  0  0
    8.4500   -4.3660    0.8530 C   0  0  1  0  0  3  0  0  0  0  0  0
    9.5150   -4.5360   -0.2770 C   0  0  0  0  0  0  0  0  0  0  0  0
   10.7150   -4.6190    0.1140 O   0  0  0  0  0  1  0  0  0  0  0  0
    9.0440   -4.6220   -1.4520 O   0  0  0  0  0  0  0  0  0  0  0  0
    8.6540   -3.0000    1.5280 C   0  0  0  0  0  2  0  0  0  0  0  0
    9.3280   -1.9440    0.6920 C   0  0  0  0  0  0  0  0  0  0  0  0
    9.9240   -2.1300   -0.5390 C   0  0  0  0  0  3  0  0  0  0  0  0
   10.3900   -0.9260   -0.9850 N   0  0  0  0  0  0  0  0  0  0  0  0
   10.1570    0.0530   -0.0480 C   0  0  0  0  0  0  0  0  0  0  0  0
   10.4730    1.4170   -0.0720 C   0  0  0  0  0  3  0  0  0  0  0  0
   10.1090    2.1870    1.0370 C   0  0  0  0  0  3  0  0  0  0  0  0
    9.4580    1.6010    2.1160 C   0  0  0  0  0  0  0  0  0  0  0  0
    9.1450    0.2420    2.1310 C   0  0  0  0  0  3  0  0  0  0  0  0
    9.4960   -0.5570    1.0220 C   0  0  0  0  0  0  0  0  0  0  0  0
   10.8390   -0.7810   -1.8770 H   0  0  0  0  0  0  0  0  0  0  0  0
    9.1010    2.3430    3.2080 O   0  0  0  0  0  0  0  0  0  0  0  0
    9.2400    3.2790    2.9960 H   0  0  0  0  0  0  0  0  0  0  0  0
  1  2  2  0  0  0  0
  2  5  1  0  0  0  0
  3 25  1  0  0  0  0
  3  2  1  0  0  0  0
  4  3  1  0  0  0  0
  5 10  2  0  0  0  0
  5  6  1  0  0  0  0
  6  7  2  0  0  0  0
  7  8  1  0  0  0  0
  8 13  1  0  0  0  0
  9  8  2  0  0  0  0
  9 11  1  0  0  0  0
 10  9  1  0  0  0  0
 11 12  2  0  0  0  0
 12 13  1  0  0  0  0
 12 20  1  0  0  0  0
 13 14  1  0  0  0  0
 14 19  1  0  0  0  0
 15 14  1  0  0  0  0
 15 16  1  0  0  0  0
 16 17  1  0  0  0  0
 17 18  1  0  0  0  0
 19 18  1  0  0  0  0
 20 24  2  0  0  0  0
 20 21  1  0  0  0  0
 21 22  2  0  0  0  0
 23 22  1  0  0  0  0
 24 23  1  0  0  0  0
 25 29  1  6  0  0  0
 26 27  1  0  0  0  0
 26 25  1  0  0  0  0
 28 26  2  0  0  0  0
 30 38  1  0  0  0  0
 30 29  1  0  0  0  0
 31 30  2  0  0  0  0
 32 31  1  0  0  0  0
 32 33  1  0  0  0  0
 33 38  1  0  0  0  0
 34 33  2  0  0  0  0
 34 35  1  0  0  0  0
 35 36  2  0  0  0  0
 36 37  1  0  0  0  0
 36 40  1  0  0  0  0
 38 37  2  0  0  0  0
 39 32  1  0  0  0  0
 41 40  1  0  0  0  0
M  END
>  <minimizedAffinity>
-6.08400154

$$$$
