
 OpenBabel09122219463D

 41 47  0  0  1  0  0  0  0  0999 V2000
    8.4390   -4.2920   -0.5770 O   0  0  0  0  0  0  0  0  0  0  0  0
    8.9780   -3.3020   -0.0900 C   0  0  0  0  0  0  0  0  0  0  0  0
    9.6480   -2.3900   -0.8510 N   0  0  0  0  0  0  0  0  0  0  0  0
    9.7220   -2.5920   -1.8460 H   0  0  0  0  0  0  0  0  0  0  0  0
    8.9020   -3.1060    1.3710 C   0  0  0  0  0  0  0  0  0  0  0  0
    9.9780   -2.5450    2.0640 C   0  0  0  0  0  3  0  0  0  0  0  0
    9.9310   -2.3740    3.4510 C   0  0  0  0  0  3  0  0  0  0  0  0
    8.7780   -2.8120    4.1180 C   0  0  0  0  0  0  0  0  0  0  0  0
    7.7070   -3.3890    3.4380 C   0  0  0  0  0  0  0  0  0  0  0  0
    7.7630   -3.5570    2.0480 C   0  0  0  0  0  3  0  0  0  0  0  0
    6.6990   -3.7080    4.3050 N   0  0  0  0  0  0  0  0  0  0  0  0
    7.0780   -3.2770    5.4930 C   0  0  0  0  0  0  0  0  0  0  0  0
    8.3910   -2.8400    5.4480 N   0  0  0  0  0  0  0  0  0  0  0  0
    9.2460   -2.5350    6.5900 C   0  0  0  0  0  3  0  0  0  0  0  0
    9.6070   -1.0430    6.7210 C   0  0  0  0  0  2  0  0  0  0  0  0
   10.5540   -0.8060    7.8970 C   0  0  0  0  0  2  0  0  0  0  0  0
    9.9840   -1.3660    9.1970 C   0  0  0  0  0  2  0  0  0  0  0  0
    9.6390   -2.8480    9.0690 C   0  0  0  0  0  2  0  0  0  0  0  0
    8.6920   -3.1120    7.9000 C   0  0  0  0  0  2  0  0  0  0  0  0
    6.1220   -3.2970    6.6420 C   0  0  0  0  0  0  0  0  0  0  0  0
    5.8530   -4.2680    7.6370 C   0  0  0  0  0  3  0  0  0  0  0  0
    4.8850   -3.7270    8.4540 C   0  0  0  0  0  3  0  0  0  0  0  0
    4.5500   -2.4800    8.0360 O   0  0  0  0  0  0  0  0  0  0  0  0
    5.3190   -2.2190    6.9470 C   0  0  0  0  0  3  0  0  0  0  0  0
   10.2400   -1.0710   -0.5100 C   0  0  1  0  0  3  0  0  0  0  0  0
   10.4690   -0.1540   -1.7530 C   0  0  0  0  0  0  0  0  0  0  0  0
   10.5720   -0.7550   -2.8610 O   0  0  0  0  0  0  0  0  0  0  0  0
   10.4730    1.0920   -1.5100 O   0  0  0  0  0  0  0  0  0  0  0  0
    9.4470   -0.2860    0.5480 C   0  0  0  0  0  2  0  0  0  0  0  0
    9.8810    1.1380    0.7780 C   0  0  0  0  0  0  0  0  0  0  0  0
   10.3170    2.0270   -0.1840 C   0  0  0  0  0  0  0  0  0  0  0  0
   10.5860    3.2230    0.4170 N   0  0  0  0  0  0  0  0  0  0  0  0
   10.3830    3.1330    1.7730 C   0  0  0  0  0  0  0  0  0  0  0  0
   10.5450    4.0970    2.7760 C   0  0  0  0  0  3  0  0  0  0  0  0
   10.2570    3.7200    4.0920 C   0  0  0  0  0  3  0  0  0  0  0  0
    9.8290    2.4290    4.3750 C   0  0  0  0  0  0  0  0  0  0  0  0
    9.6680    1.4750    3.3700 C   0  0  0  0  0  3  0  0  0  0  0  0
    9.9450    1.8310    2.0330 C   0  0  0  0  0  0  0  0  0  0  0  0
   10.8890    4.0530   -0.0700 H   0  0  0  0  0  0  0  0  0  0  0  0
    9.5500    2.0480    5.6580 O   0  0  0  0  0  0  0  0  0  0  0  0
    9.5570    2.8390    6.2180 H   0  0  0  0  0  0  0  0  0  0  0  0
  1  2  2  0  0  0  0
  2  5  1  0  0  0  0
  3  2  1  0  0  0  0
  4  3  1  0  0  0  0
  5 10  2  0  0  0  0
  5  6  1  0  0  0  0
  6  7  2  0  0  0  0
  7  8  1  0  0  0  0
  8 13  1  0  0  0  0
  9  8  2  0  0  0  0
  9 11  1  0  0  0  0
 10  9  1  0  0  0  0
 11 12  2  0  0  0  0
 12 20  1  0  0  0  0
 13 12  1  0  0  0  0
 13 14  1  0  0  0  0
 14 15  1  0  0  0  0
 14 19  1  0  0  0  0
 15 16  1  0  0  0  0
 16 17  1  0  0  0  0
 18 17  1  0  0  0  0
 19 18  1  0  0  0  0
 20 24  2  0  0  0  0
 20 21  1  0  0  0  0
 21 22  2  0  0  0  0
 23 22  1  0  0  0  0
 24 23  1  0  0  0  0
 25  3  1  6  0  0  0
 25 29  1  0  0  0  0
 26 28  1  0  0  0  0
 26 25  1  0  0  0  0
 27 26  2  0  0  0  0
 28 31  1  0  0  0  0
 29 30  1  0  0  0  0
 30 38  1  0  0  0  0
 31 32  1  0  0  0  0
 31 30  2  0  0  0  0
 32 33  1  0  0  0  0
 33 38  2  0  0  0  0
 33 34  1  0  0  0  0
 34 35  2  0  0  0  0
 35 36  1  0  0  0  0
 36 40  1  0  0  0  0
 37 36  2  0  0  0  0
 38 37  1  0  0  0  0
 39 32  1  0  0  0  0
 40 41  1  0  0  0  0
M  END
>  <minimizedAffinity>
-6.60813856

$$$$

 OpenBabel09122219463D

 41 46  0  0  1  0  0  0  0  0999 V2000
    4.7890   -4.6200    0.4570 O   0  0  0  0  0  0  0  0  0  0  0  0
    5.8630   -4.5050    1.0410 C   0  0  0  0  0  0  0  0  0  0  0  0
    7.0590   -4.6090    0.3930 N   0  0  0  0  0  0  0  0  0  0  0  0
    7.0220   -4.8350   -0.5990 H   0  0  0  0  0  0  0  0  0  0  0  0
    5.8510   -4.2550    2.4960 C   0  0  0  0  0  0  0  0  0  0  0  0
    4.7200   -4.5690    3.2550 C   0  0  0  0  0  3  0  0  0  0  0  0
    4.6840   -4.3170    4.6300 C   0  0  0  0  0  3  0  0  0  0  0  0
    5.8090   -3.7120    5.2070 C   0  0  0  0  0  0  0  0  0  0  0  0
    6.9340   -3.3790    4.4550 C   0  0  0  0  0  0  0  0  0  0  0  0
    6.9620   -3.6340    3.0780 C   0  0  0  0  0  3  0  0  0  0  0  0
    7.9000   -2.8260    5.2490 N   0  0  0  0  0  0  0  0  0  0  0  0
    7.4420   -2.8760    6.4850 C   0  0  0  0  0  0  0  0  0  0  0  0
    6.1210   -3.2920    6.4890 N   0  0  0  0  0  0  0  0  0  0  0  0
    5.1940   -3.2290    7.6140 C   0  0  0  0  0  3  0  0  0  0  0  0
    4.0070   -2.2720    7.3950 C   0  0  0  0  0  2  0  0  0  0  0  0
    3.1150   -2.2060    8.6340 C   0  0  0  0  0  2  0  0  0  0  0  0
    2.6500   -3.5950    9.0640 C   0  0  0  0  0  2  0  0  0  0  0  0
    3.8280   -4.5380    9.2930 C   0  0  0  0  0  2  0  0  0  0  0  0
    4.7350   -4.6220    8.0680 C   0  0  0  0  0  2  0  0  0  0  0  0
    8.3320   -2.5240    7.6340 C   0  0  0  0  0  0  0  0  0  0  0  0
    9.2850   -3.2760    8.3620 C   0  0  0  0  0  3  0  0  0  0  0  0
    9.8200   -2.4190    9.2990 C   0  0  0  0  0  3  0  0  0  0  0  0
    9.2700   -1.1830    9.1840 O   0  0  0  0  0  0  0  0  0  0  0  0
    8.3810   -1.2500    8.1590 C   0  0  0  0  0  3  0  0  0  0  0  0
    8.4500   -4.3660    0.8530 C   0  0  1  0  0  3  0  0  0  0  0  0
    9.5150   -4.5360   -0.2770 C   0  0  0  0  0  0  0  0  0  0  0  0
   10.7150   -4.6190    0.1140 O   0  0  0  0  0  1  0  0  0  0  0  0
    9.0440   -4.6220   -1.4520 O   0  0  0  0  0  0  0  0  0  0  0  0
    8.6540   -3.0000    1.5280 C   0  0  0  0  0  2  0  0  0  0  0  0
    9.3280   -1.9440    0.6920 C   0  0  0  0  0  0  0  0  0  0  0  0
    9.9240   -2.1300   -0.5390 C   0  0  0  0  0  3  0  0  0  0  0  0
   10.3900   -0.9260   -0.9850 N   0  0  0  0  0  0  0  0  0  0  0  0
   10.1570    0.0530   -0.0480 C   0  0  0  0  0  0  0  0  0  0  0  0
   10.4730    1.4170   -0.0720 C   0  0  0  0  0  3  0  0  0  0  0  0
   10.1090    2.1870    1.0370 C   0  0  0  0  0  3  0  0  0  0  0  0
    9.4580    1.6010    2.1160 C   0  0  0  0  0  0  0  0  0  0  0  0
    9.1450    0.2420    2.1310 C   0  0  0  0  0  3  0  0  0  0  0  0
    9.4960   -0.5570    1.0220 C   0  0  0  0  0  0  0  0  0  0  0  0
   10.8390   -0.7810   -1.8770 H   0  0  0  0  0  0  0  0  0  0  0  0
    9.1010    2.3430    3.2080 O   0  0  0  0  0  0  0  0  0  0  0  0
    9.2400    3.2790    2.9960 H   0  0  0  0  0  0  0  0  0  0  0  0
  1  2  2  0  0  0  0
  2  5  1  0  0  0  0
  3 25  1  0  0  0  0
  3  2  1  0  0  0  0
  4  3  1  0  0  0  0
  5 10  2  0  0  0  0
  5  6  1  0  0  0  0
  6  7  2  0  0  0  0
  7  8  1  0  0  0  0
  8 13  1  0  0  0  0
  9  8  2  0  0  0  0
  9 11  1  0  0  0  0
 10  9  1  0  0  0  0
 11 12  2  0  0  0  0
 12 13  1  0  0  0  0
 12 20  1  0  0  0  0
 13 14  1  0  0  0  0
 14 19  1  0  0  0  0
 15 14  1  0  0  0  0
 15 16  1  0  0  0  0
 16 17  1  0  0  0  0
 17 18  1  0  0  0  0
 19 18  1  0  0  0  0
 20 24  2  0  0  0  0
 20 21  1  0  0  0  0
 21 22  2  0  0  0  0
 23 22  1  0  0  0  0
 24 23  1  0  0  0  0
 25 29  1  6  0  0  0
 26 27  1  0  0  0  0
 26 25  1  0  0  0  0
 28 26  2  0  0  0  0
 30 38  1  0  0  0  0
 30 29  1  0  0  0  0
 31 30  2  0  0  0  0
 32 31  1  0  0  0  0
 32 33  1  0  0  0  0
 33 38  1  0  0  0  0
 34 33  2  0  0  0  0
 34 35  1  0  0  0  0
 35 36  2  0  0  0  0
 36 37  1  0  0  0  0
 36 40  1  0  0  0  0
 38 37  2  0  0  0  0
 39 32  1  0  0  0  0
 41 40  1  0  0  0  0
M  END
>  <minimizedAffinity>
-6.08400154

$$$$

 OpenBabel09122219463D

 41 46  0  0  1  0  0  0  0  0999 V2000
    1.5690   -1.4600    9.2940 O   0  0  0  0  0  0  0  0  0  0  0  0
    2.1900   -1.7060    8.2630 C   0  0  0  0  0  0  0  0  0  0  0  0
    1.5900   -2.2420    7.1620 N   0  0  0  0  0  0  0  0  0  0  0  0
    0.6020   -2.4730    7.2470 H   0  0  0  0  0  0  0  0  0  0  0  0
    3.6370   -1.4190    8.2280 C   0  0  0  0  0  0  0  0  0  0  0  0
    4.5330   -2.3730    7.7360 C   0  0  0  0  0  3  0  0  0  0  0  0
    5.9090   -2.1250    7.7180 C   0  0  0  0  0  3  0  0  0  0  0  0
    6.3530   -0.9010    8.2380 C   0  0  0  0  0  0  0  0  0  0  0  0
    5.4700    0.0490    8.7470 C   0  0  0  0  0  0  0  0  0  0  0  0
    4.0920   -0.2080    8.7620 C   0  0  0  0  0  3  0  0  0  0  0  0
    6.1440    1.1610    9.1680 N   0  0  0  0  0  0  0  0  0  0  0  0
    7.4130    0.9650    8.8660 C   0  0  0  0  0  0  0  0  0  0  0  0
    7.6030   -0.3310    8.4140 N   0  0  0  0  0  0  0  0  0  0  0  0
    8.8820   -1.0070    8.2280 C   0  0  0  0  0  3  0  0  0  0  0  0
    9.0910   -2.2170    9.1580 C   0  0  0  0  0  2  0  0  0  0  0  0
   10.4740   -2.8360    8.9550 C   0  0  0  0  0  2  0  0  0  0  0  0
   10.7170   -3.1980    7.4920 C   0  0  0  0  0  2  0  0  0  0  0  0
   10.5230   -1.9940    6.5740 C   0  0  0  0  0  2  0  0  0  0  0  0
    9.1470   -1.3570    6.7570 C   0  0  0  0  0  2  0  0  0  0  0  0
    8.4040    2.0730    9.0200 C   0  0  0  0  0  0  0  0  0  0  0  0
    9.7930    2.0740    9.2960 C   0  0  0  0  0  3  0  0  0  0  0  0
   10.1870    3.3940    9.2970 C   0  0  0  0  0  3  0  0  0  0  0  0
    9.1350    4.2060    9.0230 O   0  0  0  0  0  0  0  0  0  0  0  0
    8.0600    3.3960    8.8380 C   0  0  0  0  0  3  0  0  0  0  0  0
    2.0960   -2.4830    5.7860 C   0  0  1  0  0  3  0  0  0  0  0  0
    1.8200   -1.3000    4.8070 C   0  0  0  0  0  0  0  0  0  0  0  0
    1.8650   -1.5890    3.5760 O   0  0  0  0  0  0  0  0  0  0  0  0
    1.5290   -0.1960    5.3630 O   0  0  0  0  0  1  0  0  0  0  0  0
    3.5910   -2.8400    5.7260 C   0  0  0  0  0  2  0  0  0  0  0  0
    4.0570   -3.5180    4.4640 C   0  0  0  0  0  0  0  0  0  0  0  0
    3.2620   -4.1580    3.5350 C   0  0  0  0  0  3  0  0  0  0  0  0
    4.0550   -4.6130    2.5200 N   0  0  0  0  0  0  0  0  0  0  0  0
    5.3740   -4.3290    2.7820 C   0  0  0  0  0  0  0  0  0  0  0  0
    6.5230   -4.6160    2.0350 C   0  0  0  0  0  3  0  0  0  0  0  0
    7.7550   -4.1990    2.5510 C   0  0  0  0  0  3  0  0  0  0  0  0
    7.8160   -3.5270    3.7660 C   0  0  0  0  0  0  0  0  0  0  0  0
    6.6660   -3.2430    4.5020 C   0  0  0  0  0  3  0  0  0  0  0  0
    5.4100   -3.6460    4.0020 C   0  0  0  0  0  0  0  0  0  0  0  0
    3.7150   -5.0860    1.6970 H   0  0  0  0  0  0  0  0  0  0  0  0
    9.0140   -3.1190    4.2830 O   0  0  0  0  0  0  0  0  0  0  0  0
    9.6950   -3.2450    3.6050 H   0  0  0  0  0  0  0  0  0  0  0  0
  2  1  2  0  0  0  0
  3  4  1  0  0  0  0
  3  2  1  0  0  0  0
  5  2  1  0  0  0  0
  5 10  1  0  0  0  0
  6  5  2  0  0  0  0
  7  6  1  0  0  0  0
  7  8  2  0  0  0  0
  8 13  1  0  0  0  0
  8  9  1  0  0  0  0
  9 10  2  0  0  0  0
  9 11  1  0  0  0  0
 12 20  1  0  0  0  0
 12 11  2  0  0  0  0
 13 12  1  0  0  0  0
 14 13  1  0  0  0  0
 14 15  1  0  0  0  0
 16 15  1  0  0  0  0
 17 16  1  0  0  0  0
 18 19  1  0  0  0  0
 18 17  1  0  0  0  0
 19 14  1  0  0  0  0
 20 21  1  0  0  0  0
 21 22  2  0  0  0  0
 23 22  1  0  0  0  0
 24 20  2  0  0  0  0
 24 23  1  0  0  0  0
 25 29  1  1  0  0  0
 25  3  1  0  0  0  0
 26 28  1  0  0  0  0
 26 25  1  0  0  0  0
 27 26  2  0  0  0  0
 30 29  1  0  0  0  0
 31 30  2  0  0  0  0
 32 33  1  0  0  0  0
 32 31  1  0  0  0  0
 33 38  1  0  0  0  0
 34 35  1  0  0  0  0
 34 33  2  0  0  0  0
 35 36  2  0  0  0  0
 36 40  1  0  0  0  0
 36 37  1  0  0  0  0
 38 30  1  0  0  0  0
 38 37  2  0  0  0  0
 39 32  1  0  0  0  0
 41 40  1  0  0  0  0
M  END
>  <minimizedAffinity>
-5.0159502

$$$$

 OpenBabel09122219463D

 41 46  0  0  1  0  0  0  0  0999 V2000
    9.2350   -4.6230   -0.4860 O   0  0  0  0  0  0  0  0  0  0  0  0
    9.2410   -3.7960    0.4230 C   0  0  0  0  0  0  0  0  0  0  0  0
   10.1630   -2.7940    0.4900 N   0  0  0  0  0  0  0  0  0  0  0  0
   10.8830   -2.7880   -0.2300 H   0  0  0  0  0  0  0  0  0  0  0  0
    8.2160   -3.9050    1.4800 C   0  0  0  0  0  0  0  0  0  0  0  0
    6.9440   -4.4030    1.1800 C   0  0  0  0  0  3  0  0  0  0  0  0
    5.9560   -4.4900    2.1650 C   0  0  0  0  0  3  0  0  0  0  0  0
    6.2810   -4.0350    3.4500 C   0  0  0  0  0  0  0  0  0  0  0  0
    7.5400   -3.5210    3.7550 C   0  0  0  0  0  0  0  0  0  0  0  0
    8.5250   -3.4360    2.7620 C   0  0  0  0  0  3  0  0  0  0  0  0
    7.6130   -3.1690    5.0740 N   0  0  0  0  0  0  0  0  0  0  0  0
    6.4640   -3.5200    5.6190 C   0  0  0  0  0  0  0  0  0  0  0  0
    5.5760   -3.9340    4.6390 N   0  0  0  0  0  0  0  0  0  0  0  0
    4.1430   -4.1520    4.8010 C   0  0  0  0  0  3  0  0  0  0  0  0
    3.7000   -4.3330    6.2660 C   0  0  0  0  0  2  0  0  0  0  0  0
    2.2020   -4.6220    6.3570 C   0  0  0  0  0  2  0  0  0  0  0  0
    1.3800   -3.5510    5.6450 C   0  0  0  0  0  2  0  0  0  0  0  0
    1.8120   -3.3830    4.1900 C   0  0  0  0  0  2  0  0  0  0  0  0
    3.3070   -3.0920    4.0720 C   0  0  0  0  0  2  0  0  0  0  0  0
    6.2790   -3.4490    7.1000 C   0  0  0  0  0  0  0  0  0  0  0  0
    6.1110   -4.4510    8.0860 C   0  0  0  0  0  3  0  0  0  0  0  0
    6.0130   -3.7950    9.2920 C   0  0  0  0  0  3  0  0  0  0  0  0
    6.1270   -2.4540    9.1170 O   0  0  0  0  0  0  0  0  0  0  0  0
    6.3060   -2.2530    7.7860 C   0  0  0  0  0  3  0  0  0  0  0  0
   10.2750   -1.6200    1.3930 C   0  0  1  0  0  3  0  0  0  0  0  0
    9.2410   -0.4940    1.0770 C   0  0  0  0  0  0  0  0  0  0  0  0
    9.6230    0.3790    0.2440 O   0  0  0  0  0  0  0  0  0  0  0  0
    8.1180   -0.6160    1.6550 O   0  0  0  0  0  1  0  0  0  0  0  0
   10.1870   -1.9720    2.8870 C   0  0  0  0  0  2  0  0  0  0  0  0
   10.3080   -0.8170    3.8460 C   0  0  0  0  0  0  0  0  0  0  0  0
   10.3940    0.5200    3.5120 C   0  0  0  0  0  3  0  0  0  0  0  0
   10.4570    1.2540    4.6620 N   0  0  0  0  0  0  0  0  0  0  0  0
   10.4630    0.4240    5.7580 C   0  0  0  0  0  0  0  0  0  0  0  0
   10.5310    0.7330    7.1220 C   0  0  0  0  0  3  0  0  0  0  0  0
   10.5160   -0.3300    8.0310 C   0  0  0  0  0  3  0  0  0  0  0  0
   10.4400   -1.6410    7.5760 C   0  0  0  0  0  0  0  0  0  0  0  0
   10.3710   -1.9400    6.2160 C   0  0  0  0  0  3  0  0  0  0  0  0
   10.3770   -0.8860    5.2780 C   0  0  0  0  0  0  0  0  0  0  0  0
   10.4920    2.2610    4.6970 H   0  0  0  0  0  0  0  0  0  0  0  0
   10.4300   -2.6890    8.4540 O   0  0  0  0  0  0  0  0  0  0  0  0
   10.3300   -2.3320    9.3500 H   0  0  0  0  0  0  0  0  0  0  0  0
  1  2  2  0  0  0  0
  2  3  1  0  0  0  0
  2  5  1  0  0  0  0
  3 25  1  0  0  0  0
  4  3  1  0  0  0  0
  5 10  1  0  0  0  0
  6  5  2  0  0  0  0
  6  7  1  0  0  0  0
  7  8  2  0  0  0  0
  8  9  1  0  0  0  0
  8 13  1  0  0  0  0
  9 11  1  0  0  0  0
 10  9  2  0  0  0  0
 11 12  2  0  0  0  0
 12 20  1  0  0  0  0
 13 14  1  0  0  0  0
 13 12  1  0  0  0  0
 14 15  1  0  0  0  0
 15 16  1  0  0  0  0
 17 16  1  0  0  0  0
 18 17  1  0  0  0  0
 19 18  1  0  0  0  0
 19 14  1  0  0  0  0
 20 24  2  0  0  0  0
 20 21  1  0  0  0  0
 21 22  2  0  0  0  0
 23 22  1  0  0  0  0
 24 23  1  0  0  0  0
 25 29  1  1  0  0  0
 26 25  1  0  0  0  0
 26 28  1  0  0  0  0
 27 26  2  0  0  0  0
 29 30  1  0  0  0  0
 30 38  1  0  0  0  0
 31 30  2  0  0  0  0
 31 32  1  0  0  0  0
 32 39  1  0  0  0  0
 32 33  1  0  0  0  0
 33 34  1  0  0  0  0
 34 35  2  0  0  0  0
 36 35  1  0  0  0  0
 36 40  1  0  0  0  0
 37 36  2  0  0  0  0
 38 33  2  0  0  0  0
 38 37  1  0  0  0  0
 40 41  1  0  0  0  0
M  END
>  <minimizedAffinity>
-4.79052067

$$$$
