
 OpenBabel09122222393D

 41 47  0  0  1  0  0  0  0  0999 V2000
    8.4390   -4.2920   -0.5770 O   0  0  0  0  0  0  0  0  0  0  0  0
    8.9780   -3.3020   -0.0900 C   0  0  0  0  0  0  0  0  0  0  0  0
    9.6480   -2.3900   -0.8510 N   0  0  0  0  0  0  0  0  0  0  0  0
    9.7220   -2.5920   -1.8460 H   0  0  0  0  0  0  0  0  0  0  0  0
    8.9020   -3.1060    1.3710 C   0  0  0  0  0  0  0  0  0  0  0  0
    9.9780   -2.5450    2.0640 C   0  0  0  0  0  3  0  0  0  0  0  0
    9.9310   -2.3740    3.4510 C   0  0  0  0  0  3  0  0  0  0  0  0
    8.7780   -2.8120    4.1180 C   0  0  0  0  0  0  0  0  0  0  0  0
    7.7070   -3.3890    3.4380 C   0  0  0  0  0  0  0  0  0  0  0  0
    7.7630   -3.5570    2.0480 C   0  0  0  0  0  3  0  0  0  0  0  0
    6.6990   -3.7080    4.3050 N   0  0  0  0  0  0  0  0  0  0  0  0
    7.0780   -3.2770    5.4930 C   0  0  0  0  0  0  0  0  0  0  0  0
    8.3910   -2.8400    5.4480 N   0  0  0  0  0  0  0  0  0  0  0  0
    9.2460   -2.5350    6.5900 C   0  0  0  0  0  3  0  0  0  0  0  0
    9.6070   -1.0430    6.7210 C   0  0  0  0  0  2  0  0  0  0  0  0
   10.5540   -0.8060    7.8970 C   0  0  0  0  0  2  0  0  0  0  0  0
    9.9840   -1.3660    9.1970 C   0  0  0  0  0  2  0  0  0  0  0  0
    9.6390   -2.8480    9.0690 C   0  0  0  0  0  2  0  0  0  0  0  0
    8.6920   -3.1120    7.9000 C   0  0  0  0  0  2  0  0  0  0  0  0
    6.1220   -3.2970    6.6420 C   0  0  0  0  0  0  0  0  0  0  0  0
    5.8530   -4.2680    7.6370 C   0  0  0  0  0  3  0  0  0  0  0  0
    4.8850   -3.7270    8.4540 C   0  0  0  0  0  3  0  0  0  0  0  0
    4.5500   -2.4800    8.0360 O   0  0  0  0  0  0  0  0  0  0  0  0
    5.3190   -2.2190    6.9470 C   0  0  0  0  0  3  0  0  0  0  0  0
   10.2400   -1.0710   -0.5100 C   0  0  1  0  0  3  0  0  0  0  0  0
   10.4690   -0.1540   -1.7530 C   0  0  0  0  0  0  0  0  0  0  0  0
   10.5720   -0.7550   -2.8610 O   0  0  0  0  0  0  0  0  0  0  0  0
   10.4730    1.0920   -1.5100 O   0  0  0  0  0  0  0  0  0  0  0  0
    9.4470   -0.2860    0.5480 C   0  0  0  0  0  2  0  0  0  0  0  0
    9.8810    1.1380    0.7780 C   0  0  0  0  0  0  0  0  0  0  0  0
   10.3170    2.0270   -0.1840 C   0  0  0  0  0  0  0  0  0  0  0  0
   10.5860    3.2230    0.4170 N   0  0  0  0  0  0  0  0  0  0  0  0
   10.3830    3.1330    1.7730 C   0  0  0  0  0  0  0  0  0  0  0  0
   10.5450    4.0970    2.7760 C   0  0  0  0  0  3  0  0  0  0  0  0
   10.2570    3.7200    4.0920 C   0  0  0  0  0  3  0  0  0  0  0  0
    9.8290    2.4290    4.3750 C   0  0  0  0  0  0  0  0  0  0  0  0
    9.6680    1.4750    3.3700 C   0  0  0  0  0  3  0  0  0  0  0  0
    9.9450    1.8310    2.0330 C   0  0  0  0  0  0  0  0  0  0  0  0
   10.8890    4.0530   -0.0700 H   0  0  0  0  0  0  0  0  0  0  0  0
    9.5500    2.0480    5.6580 O   0  0  0  0  0  0  0  0  0  0  0  0
    9.5570    2.8390    6.2180 H   0  0  0  0  0  0  0  0  0  0  0  0
  1  2  2  0  0  0  0
  2  5  1  0  0  0  0
  3  2  1  0  0  0  0
  4  3  1  0  0  0  0
  5 10  2  0  0  0  0
  5  6  1  0  0  0  0
  6  7  2  0  0  0  0
  7  8  1  0  0  0  0
  8 13  1  0  0  0  0
  9  8  2  0  0  0  0
  9 11  1  0  0  0  0
 10  9  1  0  0  0  0
 11 12  2  0  0  0  0
 12 20  1  0  0  0  0
 13 12  1  0  0  0  0
 13 14  1  0  0  0  0
 14 15  1  0  0  0  0
 14 19  1  0  0  0  0
 15 16  1  0  0  0  0
 16 17  1  0  0  0  0
 18 17  1  0  0  0  0
 19 18  1  0  0  0  0
 20 24  2  0  0  0  0
 20 21  1  0  0  0  0
 21 22  2  0  0  0  0
 23 22  1  0  0  0  0
 24 23  1  0  0  0  0
 25  3  1  6  0  0  0
 25 29  1  0  0  0  0
 26 28  1  0  0  0  0
 26 25  1  0  0  0  0
 27 26  2  0  0  0  0
 28 31  1  0  0  0  0
 29 30  1  0  0  0  0
 30 38  1  0  0  0  0
 31 32  1  0  0  0  0
 31 30  2  0  0  0  0
 32 33  1  0  0  0  0
 33 38  2  0  0  0  0
 33 34  1  0  0  0  0
 34 35  2  0  0  0  0
 35 36  1  0  0  0  0
 36 40  1  0  0  0  0
 37 36  2  0  0  0  0
 38 37  1  0  0  0  0
 39 32  1  0  0  0  0
 40 41  1  0  0  0  0
M  END
>  <minimizedAffinity>
-6.60813856

$$$$
