
 OpenBabel09122222393D

 35 38  0  0  1  0  0  0  0  0999 V2000
    5.7870   -5.0840    5.3570 O   0  0  0  0  0  0  0  0  0  0  0  0
    6.3820   -4.0300    5.5460 C   0  0  0  0  0  0  0  0  0  0  0  0
    5.8670   -3.0610    6.5830 C   0  0  1  0  0  3  0  0  0  0  0  0
    6.8560   -2.3190    7.1290 C   0  0  1  0  0  3  0  0  0  0  0  0
    8.2220   -2.4070    6.5480 C   0  0  0  0  0  0  0  0  0  0  0  0
    9.3690   -1.9400    7.1800 C   0  0  0  0  0  3  0  0  0  0  0  0
   10.5670   -1.9180    6.4690 C   0  0  0  0  0  3  0  0  0  0  0  0
   10.5670   -2.3350    5.1420 C   0  0  0  0  0  3  0  0  0  0  0  0
    9.4700   -2.7750    4.4840 N   0  0  0  0  0  0  0  0  0  0  0  0
    8.3300   -2.8190    5.1980 C   0  0  0  0  0  0  0  0  0  0  0  0
    7.1150   -3.2860    4.6170 N   0  0  0  0  0  0  0  0  0  0  0  0
    4.6420   -2.4840    5.8800 C   0  0  2  0  0  3  0  0  0  0  0  0
    4.0290   -1.5130    6.5530 N   0  0  0  0  0  0  0  0  0  0  0  0
    2.4570   -1.5810    6.9940 S   0  0  0  0  0  0  0  0  0  0  0  0
    2.3010   -0.9490    8.2870 O   0  0  0  0  0  0  0  0  0  0  0  0
    1.5840   -1.2180    5.9000 O   0  0  0  0  0  0  0  0  0  0  0  0
    2.2510   -3.3120    7.2820 C   0  0  0  0  0  0  0  0  0  0  0  0
    1.3660   -4.1300    8.6720 C   0  0  0  0  0  3  0  0  0  0  0  0
    1.3590   -5.9490    8.7510 C   0  0  0  0  0  3  0  0  0  0  0  0
    2.2940   -6.9320    7.5160 C   0  0  0  0  0  3  0  0  0  0  0  0
    3.1410   -6.0720    6.1290 C   0  0  0  0  0  0  0  0  0  0  0  0
    4.0220   -7.0650    4.7610 Br  0  0  0  0  0  0  0  0  0  0  0  0
    3.0430   -4.2710    5.9840 C   0  0  0  0  0  0  0  0  0  0  0  0
    3.9090   -3.4870    5.1530 N   0  0  0  0  0  0  0  0  0  0  0  0
    4.5710   -0.9840    7.2220 H   0  0  0  0  0  0  0  0  0  0  0  0
    4.4320   -4.0730    4.4990 H   0  0  0  0  0  0  0  0  0  0  0  0
    6.6320   -1.2060    7.9110 O   0  0  0  0  0  0  0  0  0  0  0  0
    5.7840   -1.2970    8.3830 H   0  0  0  0  0  0  0  0  0  0  0  0
    6.7990   -3.2650    2.9940 C   0  0  0  0  0  1  0  0  0  0  0  0
    6.1300   -4.7350    1.5630 C   0  0  0  0  0  3  0  0  0  0  0  0
    6.7290   -5.1610    0.1950 C   0  0  0  0  0  3  0  0  0  0  0  0
    6.3000   -6.1580   -0.7280 C   0  0  0  0  0  3  0  0  0  0  0  0
    5.1760   -6.9090   -0.4950 C   0  0  0  0  0  3  0  0  0  0  0  0
    4.4620   -6.6490    0.6460 C   0  0  0  0  0  3  0  0  0  0  0  0
    4.8850   -5.6560    1.5760 C   0  0  0  0  0  3  0  0  0  0  0  0
  1  2  2  0  0  0  0
  3  2  1  6  0  0  0
  3  4  1  0  0  0  0
  4 27  1  6  0  0  0
  5  4  1  0  0  0  0
  5  6  1  0  0  0  0
  7  6  2  0  0  0  0
  8  7  1  0  0  0  0
  9  8  2  0  0  0  0
  9 10  1  0  0  0  0
 10  5  2  0  0  0  0
 11 10  1  0  0  0  0
 11  2  1  0  0  0  0
 12 24  1  1  0  0  0
 12 13  1  0  0  0  0
 12  3  1  0  0  0  0
 13 14  1  0  0  0  0
 13 25  1  0  0  0  0
 14 17  1  0  0  0  0
 14 15  2  0  0  0  0
 16 14  2  0  0  0  0
 17 18  1  0  0  0  0
 18 19  2  0  0  0  0
 20 19  1  0  0  0  0
 21 20  2  0  0  0  0
 22 21  1  0  0  0  0
 23 21  1  0  0  0  0
 23 17  2  0  0  0  0
 24 23  1  0  0  0  0
 26 24  1  0  0  0  0
 27 28  1  0  0  0  0
 29 11  1  0  0  0  0
 30 35  1  0  0  0  0
 31 30  2  0  0  0  0
 32 33  2  0  0  0  0
 32 31  1  0  0  0  0
 33 34  1  0  0  0  0
 34 35  2  0  0  0  0
M  END
>  <minimizedAffinity>
-2.69310808

$$$$
