
 OpenBabel09122218473D

 35 38  0  0  1  0  0  0  0  0999 V2000
    9.7950   -2.5260    3.1270 O   0  0  0  0  0  0  0  0  0  0  0  0
    9.4950   -2.2750    4.2870 C   0  0  0  0  0  0  0  0  0  0  0  0
    8.4320   -3.0980    4.9750 C   0  0  1  0  0  3  0  0  0  0  0  0
    8.6230   -3.1720    6.3110 C   0  0  1  0  0  3  0  0  0  0  0  0
    9.6850   -2.3350    6.9300 C   0  0  0  0  0  0  0  0  0  0  0  0
   10.1790   -2.5280    8.2150 C   0  0  0  0  0  3  0  0  0  0  0  0
   11.0450   -1.5780    8.7530 C   0  0  0  0  0  3  0  0  0  0  0  0
   11.3610   -0.4550    7.9970 C   0  0  0  0  0  3  0  0  0  0  0  0
   10.8840   -0.2180    6.7520 N   0  0  0  0  0  0  0  0  0  0  0  0
   10.0760   -1.1630    6.2390 C   0  0  0  0  0  0  0  0  0  0  0  0
    9.5310   -1.0330    4.9280 N   0  0  0  0  0  0  0  0  0  0  0  0
    7.1620   -2.5710    4.3130 C   0  0  2  0  0  3  0  0  0  0  0  0
    6.0380   -2.8850    4.9530 N   0  0  0  0  0  0  0  0  0  0  0  0
    4.8130   -3.7150    4.2600 S   0  0  0  0  0  0  0  0  0  0  0  0
    4.2140   -4.5870    5.2480 O   0  0  0  0  0  0  0  0  0  0  0  0
    3.9790   -2.8520    3.4530 O   0  0  0  0  0  0  0  0  0  0  0  0
    5.6930   -4.7790    3.1570 C   0  0  0  0  0  0  0  0  0  0  0  0
    5.4040   -6.5680    2.8390 C   0  0  0  0  0  3  0  0  0  0  0  0
    6.5090   -7.4380    1.6830 C   0  0  0  0  0  3  0  0  0  0  0  0
    7.9330   -6.5610    0.9280 C   0  0  0  0  0  3  0  0  0  0  0  0
    8.1660   -4.7660    1.2530 C   0  0  0  0  0  0  0  0  0  0  0  0
    9.5630   -3.7940    0.3930 Br  0  0  0  0  0  0  0  0  0  0  0  0
    6.9940   -3.8760    2.3060 C   0  0  0  0  0  0  0  0  0  0  0  0
    7.2510   -2.5860    2.8760 N   0  0  0  0  0  0  0  0  0  0  0  0
    6.0930   -3.0800    5.9430 H   0  0  0  0  0  0  0  0  0  0  0  0
    8.0670   -2.1430    2.4490 H   0  0  0  0  0  0  0  0  0  0  0  0
    7.6770   -3.6500    7.1920 O   0  0  0  0  0  0  0  0  0  0  0  0
    7.1160   -4.3130    6.7500 H   0  0  0  0  0  0  0  0  0  0  0  0
    9.3230    0.4130    4.1540 C   0  0  0  0  0  1  0  0  0  0  0  0
    9.8540    1.1780    2.2070 C   0  0  0  0  0  3  0  0  0  0  0  0
   10.2990    2.5990    1.7660 C   0  0  0  0  0  3  0  0  0  0  0  0
   10.6830    3.0870    0.4830 C   0  0  0  0  0  3  0  0  0  0  0  0
   10.6720    2.2750   -0.6210 C   0  0  0  0  0  3  0  0  0  0  0  0
   10.2530    0.9800   -0.4560 C   0  0  0  0  0  3  0  0  0  0  0  0
    9.8700    0.4830    0.8240 C   0  0  0  0  0  3  0  0  0  0  0  0
  1  2  2  0  0  0  0
  2 11  1  0  0  0  0
  3  2  1  6  0  0  0
  3  4  1  0  0  0  0
  4  5  1  0  0  0  0
  4 27  1  1  0  0  0
  5  6  1  0  0  0  0
  6  7  2  0  0  0  0
  8  7  1  0  0  0  0
  9  8  2  0  0  0  0
 10  9  1  0  0  0  0
 10  5  2  0  0  0  0
 11 10  1  0  0  0  0
 12 24  1  6  0  0  0
 12 13  1  0  0  0  0
 12  3  1  0  0  0  0
 13 25  1  0  0  0  0
 14 13  1  0  0  0  0
 14 15  2  0  0  0  0
 16 14  2  0  0  0  0
 17 14  1  0  0  0  0
 18 17  1  0  0  0  0
 19 18  2  0  0  0  0
 20 21  2  0  0  0  0
 20 19  1  0  0  0  0
 21 23  1  0  0  0  0
 22 21  1  0  0  0  0
 23 24  1  0  0  0  0
 23 17  2  0  0  0  0
 26 24  1  0  0  0  0
 28 27  1  0  0  0  0
 29 11  1  0  0  0  0
 31 30  1  0  0  0  0
 32 31  2  0  0  0  0
 33 34  2  0  0  0  0
 33 32  1  0  0  0  0
 34 35  1  0  0  0  0
 35 30  2  0  0  0  0
M  END
>  <minimizedAffinity>
-2.92038918

$$$$

 OpenBabel09122218473D

 35 38  0  0  1  0  0  0  0  0999 V2000
    5.7870   -5.0840    5.3570 O   0  0  0  0  0  0  0  0  0  0  0  0
    6.3820   -4.0300    5.5460 C   0  0  0  0  0  0  0  0  0  0  0  0
    5.8670   -3.0610    6.5830 C   0  0  1  0  0  3  0  0  0  0  0  0
    6.8560   -2.3190    7.1290 C   0  0  1  0  0  3  0  0  0  0  0  0
    8.2220   -2.4070    6.5480 C   0  0  0  0  0  0  0  0  0  0  0  0
    9.3690   -1.9400    7.1800 C   0  0  0  0  0  3  0  0  0  0  0  0
   10.5670   -1.9180    6.4690 C   0  0  0  0  0  3  0  0  0  0  0  0
   10.5670   -2.3350    5.1420 C   0  0  0  0  0  3  0  0  0  0  0  0
    9.4700   -2.7750    4.4840 N   0  0  0  0  0  0  0  0  0  0  0  0
    8.3300   -2.8190    5.1980 C   0  0  0  0  0  0  0  0  0  0  0  0
    7.1150   -3.2860    4.6170 N   0  0  0  0  0  0  0  0  0  0  0  0
    4.6420   -2.4840    5.8800 C   0  0  2  0  0  3  0  0  0  0  0  0
    4.0290   -1.5130    6.5530 N   0  0  0  0  0  0  0  0  0  0  0  0
    2.4570   -1.5810    6.9940 S   0  0  0  0  0  0  0  0  0  0  0  0
    2.3010   -0.9490    8.2870 O   0  0  0  0  0  0  0  0  0  0  0  0
    1.5840   -1.2180    5.9000 O   0  0  0  0  0  0  0  0  0  0  0  0
    2.2510   -3.3120    7.2820 C   0  0  0  0  0  0  0  0  0  0  0  0
    1.3660   -4.1300    8.6720 C   0  0  0  0  0  3  0  0  0  0  0  0
    1.3590   -5.9490    8.7510 C   0  0  0  0  0  3  0  0  0  0  0  0
    2.2940   -6.9320    7.5160 C   0  0  0  0  0  3  0  0  0  0  0  0
    3.1410   -6.0720    6.1290 C   0  0  0  0  0  0  0  0  0  0  0  0
    4.0220   -7.0650    4.7610 Br  0  0  0  0  0  0  0  0  0  0  0  0
    3.0430   -4.2710    5.9840 C   0  0  0  0  0  0  0  0  0  0  0  0
    3.9090   -3.4870    5.1530 N   0  0  0  0  0  0  0  0  0  0  0  0
    4.5710   -0.9840    7.2220 H   0  0  0  0  0  0  0  0  0  0  0  0
    4.4320   -4.0730    4.4990 H   0  0  0  0  0  0  0  0  0  0  0  0
    6.6320   -1.2060    7.9110 O   0  0  0  0  0  0  0  0  0  0  0  0
    5.7840   -1.2970    8.3830 H   0  0  0  0  0  0  0  0  0  0  0  0
    6.7990   -3.2650    2.9940 C   0  0  0  0  0  1  0  0  0  0  0  0
    6.1300   -4.7350    1.5630 C   0  0  0  0  0  3  0  0  0  0  0  0
    6.7290   -5.1610    0.1950 C   0  0  0  0  0  3  0  0  0  0  0  0
    6.3000   -6.1580   -0.7280 C   0  0  0  0  0  3  0  0  0  0  0  0
    5.1760   -6.9090   -0.4950 C   0  0  0  0  0  3  0  0  0  0  0  0
    4.4620   -6.6490    0.6460 C   0  0  0  0  0  3  0  0  0  0  0  0
    4.8850   -5.6560    1.5760 C   0  0  0  0  0  3  0  0  0  0  0  0
  1  2  2  0  0  0  0
  3  2  1  6  0  0  0
  3  4  1  0  0  0  0
  4 27  1  6  0  0  0
  5  4  1  0  0  0  0
  5  6  1  0  0  0  0
  7  6  2  0  0  0  0
  8  7  1  0  0  0  0
  9  8  2  0  0  0  0
  9 10  1  0  0  0  0
 10  5  2  0  0  0  0
 11 10  1  0  0  0  0
 11  2  1  0  0  0  0
 12 24  1  1  0  0  0
 12 13  1  0  0  0  0
 12  3  1  0  0  0  0
 13 14  1  0  0  0  0
 13 25  1  0  0  0  0
 14 17  1  0  0  0  0
 14 15  2  0  0  0  0
 16 14  2  0  0  0  0
 17 18  1  0  0  0  0
 18 19  2  0  0  0  0
 20 19  1  0  0  0  0
 21 20  2  0  0  0  0
 22 21  1  0  0  0  0
 23 21  1  0  0  0  0
 23 17  2  0  0  0  0
 24 23  1  0  0  0  0
 26 24  1  0  0  0  0
 27 28  1  0  0  0  0
 29 11  1  0  0  0  0
 30 35  1  0  0  0  0
 31 30  2  0  0  0  0
 32 33  2  0  0  0  0
 32 31  1  0  0  0  0
 33 34  1  0  0  0  0
 34 35  2  0  0  0  0
M  END
>  <minimizedAffinity>
-2.69310808

$$$$

 OpenBabel09122218473D

 35 38  0  0  1  0  0  0  0  0999 V2000
    7.0250   -4.3350    8.0890 O   0  0  0  0  0  0  0  0  0  0  0  0
    6.7520   -3.1970    7.7270 C   0  0  0  0  0  0  0  0  0  0  0  0
    5.3480   -2.8800    7.2700 C   0  0  1  0  0  3  0  0  0  0  0  0
    5.0110   -1.5910    7.5030 C   0  0  1  0  0  3  0  0  0  0  0  0
    6.0600   -0.6520    7.9810 C   0  0  0  0  0  0  0  0  0  0  0  0
    5.7950    0.5970    8.5310 C   0  0  0  0  0  3  0  0  0  0  0  0
    6.8590    1.4610    8.7830 C   0  0  0  0  0  3  0  0  0  0  0  0
    8.1450    1.0570    8.4440 C   0  0  0  0  0  3  0  0  0  0  0  0
    8.4440   -0.1390    7.8860 N   0  0  0  0  0  0  0  0  0  0  0  0
    7.4060   -0.9720    7.6820 C   0  0  0  0  0  0  0  0  0  0  0  0
    7.6020   -2.2680    7.1200 N   0  0  0  0  0  0  0  0  0  0  0  0
    5.3160   -3.5460    5.8990 C   0  0  2  0  0  3  0  0  0  0  0  0
    4.6360   -2.8710    4.9750 N   0  0  0  0  0  0  0  0  0  0  0  0
    3.3640   -3.4960    4.1600 S   0  0  0  0  0  0  0  0  0  0  0  0
    2.3880   -2.4510    3.9330 O   0  0  0  0  0  0  0  0  0  0  0  0
    3.7990   -4.3330    3.0640 O   0  0  0  0  0  0  0  0  0  0  0  0
    2.6540   -4.5550    5.3830 C   0  0  0  0  0  0  0  0  0  0  0  0
    0.8740   -4.7700    5.7960 C   0  0  0  0  0  3  0  0  0  0  0  0
    0.4240   -5.8970    7.1540 C   0  0  0  0  0  3  0  0  0  0  0  0
    1.7320   -6.7240    8.1400 C   0  0  0  0  0  3  0  0  0  0  0  0
    3.4960   -6.5010    7.6730 C   0  0  0  0  0  0  0  0  0  0  0  0
    4.8750   -7.4370    8.5990 Br  0  0  0  0  0  0  0  0  0  0  0  0
    3.9330   -5.4770    6.2470 C   0  0  0  0  0  0  0  0  0  0  0  0
    5.2540   -4.9820    5.9920 N   0  0  0  0  0  0  0  0  0  0  0  0
    4.5330   -1.8730    5.0970 H   0  0  0  0  0  0  0  0  0  0  0  0
    5.9480   -5.4470    6.5800 H   0  0  0  0  0  0  0  0  0  0  0  0
    3.8940   -0.9870    6.9680 O   0  0  0  0  0  0  0  0  0  0  0  0
    3.1930   -1.6480    6.8290 H   0  0  0  0  0  0  0  0  0  0  0  0
    8.8890   -2.6770    6.1670 C   0  0  0  0  0  1  0  0  0  0  0  0
    9.1950   -2.8770    4.0400 C   0  0  0  0  0  3  0  0  0  0  0  0
   10.4480   -2.5990    3.1680 C   0  0  0  0  0  3  0  0  0  0  0  0
   10.6520   -2.7680    1.7680 C   0  0  0  0  0  3  0  0  0  0  0  0
    9.6470   -3.2150    0.9490 C   0  0  0  0  0  3  0  0  0  0  0  0
    8.4270   -3.4700    1.5210 C   0  0  0  0  0  3  0  0  0  0  0  0
    8.2150   -3.3060    2.9200 C   0  0  0  0  0  3  0  0  0  0  0  0
  2  1  2  0  0  0  0
  3  4  1  0  0  0  0
  3  2  1  6  0  0  0
  4 27  1  6  0  0  0
  4  5  1  0  0  0  0
  5  6  1  0  0  0  0
  6  7  2  0  0  0  0
  8  7  1  0  0  0  0
  9  8  2  0  0  0  0
 10  9  1  0  0  0  0
 10  5  2  0  0  0  0
 11 10  1  0  0  0  0
 11  2  1  0  0  0  0
 12 13  1  1  0  0  0
 12 24  1  0  0  0  0
 12  3  1  0  0  0  0
 13 25  1  0  0  0  0
 14 13  1  0  0  0  0
 14 17  1  0  0  0  0
 15 14  2  0  0  0  0
 16 14  2  0  0  0  0
 17 18  2  0  0  0  0
 17 23  1  0  0  0  0
 18 19  1  0  0  0  0
 19 20  2  0  0  0  0
 21 20  1  0  0  0  0
 21 22  1  0  0  0  0
 23 21  2  0  0  0  0
 24 23  1  0  0  0  0
 24 26  1  0  0  0  0
 28 27  1  0  0  0  0
 29 11  1  0  0  0  0
 31 30  1  0  0  0  0
 32 31  2  0  0  0  0
 33 34  2  0  0  0  0
 33 32  1  0  0  0  0
 34 35  1  0  0  0  0
 35 30  2  0  0  0  0
M  END
>  <minimizedAffinity>
-2.58112812

$$$$
