
 OpenBabel09122222393D

 35 38  0  0  1  0  0  0  0  0999 V2000
    7.0250   -4.3350    8.0890 O   0  0  0  0  0  0  0  0  0  0  0  0
    6.7520   -3.1970    7.7270 C   0  0  0  0  0  0  0  0  0  0  0  0
    5.3480   -2.8800    7.2700 C   0  0  1  0  0  3  0  0  0  0  0  0
    5.0110   -1.5910    7.5030 C   0  0  1  0  0  3  0  0  0  0  0  0
    6.0600   -0.6520    7.9810 C   0  0  0  0  0  0  0  0  0  0  0  0
    5.7950    0.5970    8.5310 C   0  0  0  0  0  3  0  0  0  0  0  0
    6.8590    1.4610    8.7830 C   0  0  0  0  0  3  0  0  0  0  0  0
    8.1450    1.0570    8.4440 C   0  0  0  0  0  3  0  0  0  0  0  0
    8.4440   -0.1390    7.8860 N   0  0  0  0  0  0  0  0  0  0  0  0
    7.4060   -0.9720    7.6820 C   0  0  0  0  0  0  0  0  0  0  0  0
    7.6020   -2.2680    7.1200 N   0  0  0  0  0  0  0  0  0  0  0  0
    5.3160   -3.5460    5.8990 C   0  0  2  0  0  3  0  0  0  0  0  0
    4.6360   -2.8710    4.9750 N   0  0  0  0  0  0  0  0  0  0  0  0
    3.3640   -3.4960    4.1600 S   0  0  0  0  0  0  0  0  0  0  0  0
    2.3880   -2.4510    3.9330 O   0  0  0  0  0  0  0  0  0  0  0  0
    3.7990   -4.3330    3.0640 O   0  0  0  0  0  0  0  0  0  0  0  0
    2.6540   -4.5550    5.3830 C   0  0  0  0  0  0  0  0  0  0  0  0
    0.8740   -4.7700    5.7960 C   0  0  0  0  0  3  0  0  0  0  0  0
    0.4240   -5.8970    7.1540 C   0  0  0  0  0  3  0  0  0  0  0  0
    1.7320   -6.7240    8.1400 C   0  0  0  0  0  3  0  0  0  0  0  0
    3.4960   -6.5010    7.6730 C   0  0  0  0  0  0  0  0  0  0  0  0
    4.8750   -7.4370    8.5990 Br  0  0  0  0  0  0  0  0  0  0  0  0
    3.9330   -5.4770    6.2470 C   0  0  0  0  0  0  0  0  0  0  0  0
    5.2540   -4.9820    5.9920 N   0  0  0  0  0  0  0  0  0  0  0  0
    4.5330   -1.8730    5.0970 H   0  0  0  0  0  0  0  0  0  0  0  0
    5.9480   -5.4470    6.5800 H   0  0  0  0  0  0  0  0  0  0  0  0
    3.8940   -0.9870    6.9680 O   0  0  0  0  0  0  0  0  0  0  0  0
    3.1930   -1.6480    6.8290 H   0  0  0  0  0  0  0  0  0  0  0  0
    8.8890   -2.6770    6.1670 C   0  0  0  0  0  1  0  0  0  0  0  0
    9.1950   -2.8770    4.0400 C   0  0  0  0  0  3  0  0  0  0  0  0
   10.4480   -2.5990    3.1680 C   0  0  0  0  0  3  0  0  0  0  0  0
   10.6520   -2.7680    1.7680 C   0  0  0  0  0  3  0  0  0  0  0  0
    9.6470   -3.2150    0.9490 C   0  0  0  0  0  3  0  0  0  0  0  0
    8.4270   -3.4700    1.5210 C   0  0  0  0  0  3  0  0  0  0  0  0
    8.2150   -3.3060    2.9200 C   0  0  0  0  0  3  0  0  0  0  0  0
  2  1  2  0  0  0  0
  3  4  1  0  0  0  0
  3  2  1  6  0  0  0
  4 27  1  6  0  0  0
  4  5  1  0  0  0  0
  5  6  1  0  0  0  0
  6  7  2  0  0  0  0
  8  7  1  0  0  0  0
  9  8  2  0  0  0  0
 10  9  1  0  0  0  0
 10  5  2  0  0  0  0
 11 10  1  0  0  0  0
 11  2  1  0  0  0  0
 12 13  1  1  0  0  0
 12 24  1  0  0  0  0
 12  3  1  0  0  0  0
 13 25  1  0  0  0  0
 14 13  1  0  0  0  0
 14 17  1  0  0  0  0
 15 14  2  0  0  0  0
 16 14  2  0  0  0  0
 17 18  2  0  0  0  0
 17 23  1  0  0  0  0
 18 19  1  0  0  0  0
 19 20  2  0  0  0  0
 21 20  1  0  0  0  0
 21 22  1  0  0  0  0
 23 21  2  0  0  0  0
 24 23  1  0  0  0  0
 24 26  1  0  0  0  0
 28 27  1  0  0  0  0
 29 11  1  0  0  0  0
 31 30  1  0  0  0  0
 32 31  2  0  0  0  0
 33 34  2  0  0  0  0
 33 32  1  0  0  0  0
 34 35  1  0  0  0  0
 35 30  2  0  0  0  0
M  END
>  <minimizedAffinity>
-2.58112812

$$$$
