
 OpenBabel09122222393D

 35 38  0  0  1  0  0  0  0  0999 V2000
    9.7950   -2.5260    3.1270 O   0  0  0  0  0  0  0  0  0  0  0  0
    9.4950   -2.2750    4.2870 C   0  0  0  0  0  0  0  0  0  0  0  0
    8.4320   -3.0980    4.9750 C   0  0  1  0  0  3  0  0  0  0  0  0
    8.6230   -3.1720    6.3110 C   0  0  1  0  0  3  0  0  0  0  0  0
    9.6850   -2.3350    6.9300 C   0  0  0  0  0  0  0  0  0  0  0  0
   10.1790   -2.5280    8.2150 C   0  0  0  0  0  3  0  0  0  0  0  0
   11.0450   -1.5780    8.7530 C   0  0  0  0  0  3  0  0  0  0  0  0
   11.3610   -0.4550    7.9970 C   0  0  0  0  0  3  0  0  0  0  0  0
   10.8840   -0.2180    6.7520 N   0  0  0  0  0  0  0  0  0  0  0  0
   10.0760   -1.1630    6.2390 C   0  0  0  0  0  0  0  0  0  0  0  0
    9.5310   -1.0330    4.9280 N   0  0  0  0  0  0  0  0  0  0  0  0
    7.1620   -2.5710    4.3130 C   0  0  2  0  0  3  0  0  0  0  0  0
    6.0380   -2.8850    4.9530 N   0  0  0  0  0  0  0  0  0  0  0  0
    4.8130   -3.7150    4.2600 S   0  0  0  0  0  0  0  0  0  0  0  0
    4.2140   -4.5870    5.2480 O   0  0  0  0  0  0  0  0  0  0  0  0
    3.9790   -2.8520    3.4530 O   0  0  0  0  0  0  0  0  0  0  0  0
    5.6930   -4.7790    3.1570 C   0  0  0  0  0  0  0  0  0  0  0  0
    5.4040   -6.5680    2.8390 C   0  0  0  0  0  3  0  0  0  0  0  0
    6.5090   -7.4380    1.6830 C   0  0  0  0  0  3  0  0  0  0  0  0
    7.9330   -6.5610    0.9280 C   0  0  0  0  0  3  0  0  0  0  0  0
    8.1660   -4.7660    1.2530 C   0  0  0  0  0  0  0  0  0  0  0  0
    9.5630   -3.7940    0.3930 Br  0  0  0  0  0  0  0  0  0  0  0  0
    6.9940   -3.8760    2.3060 C   0  0  0  0  0  0  0  0  0  0  0  0
    7.2510   -2.5860    2.8760 N   0  0  0  0  0  0  0  0  0  0  0  0
    6.0930   -3.0800    5.9430 H   0  0  0  0  0  0  0  0  0  0  0  0
    8.0670   -2.1430    2.4490 H   0  0  0  0  0  0  0  0  0  0  0  0
    7.6770   -3.6500    7.1920 O   0  0  0  0  0  0  0  0  0  0  0  0
    7.1160   -4.3130    6.7500 H   0  0  0  0  0  0  0  0  0  0  0  0
    9.3230    0.4130    4.1540 C   0  0  0  0  0  1  0  0  0  0  0  0
    9.8540    1.1780    2.2070 C   0  0  0  0  0  3  0  0  0  0  0  0
   10.2990    2.5990    1.7660 C   0  0  0  0  0  3  0  0  0  0  0  0
   10.6830    3.0870    0.4830 C   0  0  0  0  0  3  0  0  0  0  0  0
   10.6720    2.2750   -0.6210 C   0  0  0  0  0  3  0  0  0  0  0  0
   10.2530    0.9800   -0.4560 C   0  0  0  0  0  3  0  0  0  0  0  0
    9.8700    0.4830    0.8240 C   0  0  0  0  0  3  0  0  0  0  0  0
  1  2  2  0  0  0  0
  2 11  1  0  0  0  0
  3  2  1  6  0  0  0
  3  4  1  0  0  0  0
  4  5  1  0  0  0  0
  4 27  1  1  0  0  0
  5  6  1  0  0  0  0
  6  7  2  0  0  0  0
  8  7  1  0  0  0  0
  9  8  2  0  0  0  0
 10  9  1  0  0  0  0
 10  5  2  0  0  0  0
 11 10  1  0  0  0  0
 12 24  1  6  0  0  0
 12 13  1  0  0  0  0
 12  3  1  0  0  0  0
 13 25  1  0  0  0  0
 14 13  1  0  0  0  0
 14 15  2  0  0  0  0
 16 14  2  0  0  0  0
 17 14  1  0  0  0  0
 18 17  1  0  0  0  0
 19 18  2  0  0  0  0
 20 21  2  0  0  0  0
 20 19  1  0  0  0  0
 21 23  1  0  0  0  0
 22 21  1  0  0  0  0
 23 24  1  0  0  0  0
 23 17  2  0  0  0  0
 26 24  1  0  0  0  0
 28 27  1  0  0  0  0
 29 11  1  0  0  0  0
 31 30  1  0  0  0  0
 32 31  2  0  0  0  0
 33 34  2  0  0  0  0
 33 32  1  0  0  0  0
 34 35  1  0  0  0  0
 35 30  2  0  0  0  0
M  END
>  <minimizedAffinity>
-2.92038918

$$$$
