
 OpenBabel09132204463D

 28 30  0  0  0  0  0  0  0  0999 V2000
    2.4640   -2.1080    4.8660 C   0  0  0  0  0  0  0  0  0  0  0  0
    3.0700   -2.9960    3.9990 N   0  0  0  0  0  0  0  0  0  0  0  0
    4.1850   -3.5110    4.3850 C   0  0  0  0  0  0  0  0  0  0  0  0
    4.7920   -3.2380    5.5650 N   0  0  0  0  0  0  0  0  0  0  0  0
    4.2640   -2.3490    6.4530 C   0  0  0  0  0  0  0  0  0  0  0  0
    4.8300   -2.0810    7.5070 O   0  0  0  0  0  0  0  0  0  0  0  0
    2.9750   -1.7460    6.0580 C   0  0  0  0  0  0  0  0  0  0  0  0
    5.6710   -3.6760    5.7930 H   0  0  0  0  0  0  0  0  0  0  0  0
   -1.3270   -0.5670    3.5540 C   0  0  0  0  0  0  0  0  0  0  0  0
   -1.2590   -1.5930    4.5080 C   0  0  0  0  0  3  0  0  0  0  0  0
   -0.0250   -2.0940    4.9350 C   0  0  0  0  0  3  0  0  0  0  0  0
    1.1650   -1.5710    4.4180 C   0  0  0  0  0  0  0  0  0  0  0  0
    1.1060   -0.5540    3.4620 C   0  0  0  0  0  3  0  0  0  0  0  0
   -0.1280   -0.0600    3.0320 C   0  0  0  0  0  3  0  0  0  0  0  0
   -2.6480    0.5150    1.6710 C   0  0  0  0  0  1  0  0  0  0  0  0
   -2.6830   -0.0670    3.0870 C   0  0  0  0  0  3  0  0  0  0  0  0
   -3.7310   -1.1770    3.1910 C   0  0  0  0  0  1  0  0  0  0  0  0
    2.2890   -0.8210    7.0490 C   0  0  0  0  0  2  0  0  0  0  0  0
    1.7200   -0.0540    7.8720 N   0  0  0  0  0  1  0  0  0  0  0  0
    5.0590   -4.6510    3.4170 S   0  0  0  0  0  0  0  0  0  0  0  0
    4.7620   -6.1460    4.4140 C   0  0  0  0  0  2  0  0  0  0  0  0
    3.4490   -6.0930    5.1630 C   0  0  0  0  0  0  0  0  0  0  0  0
    2.2520   -6.1540    4.4180 C   0  0  0  0  0  3  0  0  0  0  0  0
    1.0060   -6.0560    5.0400 C   0  0  0  0  0  3  0  0  0  0  0  0
    0.9300   -5.9050    6.4200 C   0  0  0  0  0  3  0  0  0  0  0  0
    2.0980   -5.8610    7.1780 C   0  0  0  0  0  3  0  0  0  0  0  0
    3.3500   -5.9580    6.5580 C   0  0  0  0  0  0  0  0  0  0  0  0
    4.8660   -5.8910    7.7000 Br  0  0  0  0  0  0  0  0  0  0  0  0
  1  7  2  0  0  0  0
  2  3  2  0  0  0  0
  2  1  1  0  0  0  0
  3  4  1  0  0  0  0
  4  8  1  0  0  0  0
  4  5  1  0  0  0  0
  5  6  2  0  0  0  0
  7  5  1  0  0  0  0
  7 18  1  0  0  0  0
  9 10  1  0  0  0  0
 10 11  2  0  0  0  0
 12  1  1  0  0  0  0
 12 11  1  0  0  0  0
 13 12  2  0  0  0  0
 14 13  1  0  0  0  0
 14  9  2  0  0  0  0
 15 16  1  0  0  0  0
 16 17  1  0  0  0  0
 16  9  1  0  0  0  0
 18 19  1  0  0  0  0
 20  3  1  0  0  0  0
 20 21  1  0  0  0  0
 21 22  1  0  0  0  0
 22 27  1  0  0  0  0
 23 24  1  0  0  0  0
 23 22  2  0  0  0  0
 24 25  2  0  0  0  0
 25 26  1  0  0  0  0
 27 26  2  0  0  0  0
 27 28  1  0  0  0  0
M  END
>  <minimizedAffinity>
19.948267

$$$$
