
 OpenBabel09122222393D

 26 28  0  0  0  0  0  0  0  0999 V2000
    1.1460    6.6610   -8.9370 C   0  0  0  0  0  0  0  0  0  0  0  0
    0.2370    7.3840   -9.4940 N   0  0  0  0  0  0  0  0  0  0  0  0
   -1.0630    7.1710   -9.0830 C   0  0  0  0  0  0  0  0  0  0  0  0
   -1.4320    6.2290   -8.1950 C   0  0  0  0  0  0  0  0  0  0  0  0
   -0.3620    5.3910   -7.6130 C   0  0  0  0  0  0  0  0  0  0  0  0
   -0.5870    4.4900   -6.8150 O   0  0  0  0  0  0  0  0  0  0  0  0
    0.9040    5.6950   -8.0190 N   0  0  0  0  0  0  0  0  0  0  0  0
    1.6700    5.1500   -7.6500 H   0  0  0  0  0  0  0  0  0  0  0  0
   -2.0720    8.0740   -9.6720 C   0  0  0  0  0  0  0  0  0  0  0  0
   -3.2440    7.5580  -10.2410 C   0  0  0  0  0  3  0  0  0  0  0  0
   -4.1920    8.4170  -10.7960 C   0  0  0  0  0  3  0  0  0  0  0  0
   -3.9770    9.7960  -10.7850 C   0  0  0  0  0  3  0  0  0  0  0  0
   -2.8110   10.3280  -10.2230 C   0  0  0  0  0  0  0  0  0  0  0  0
   -2.6040   11.8140  -10.1730 C   0  0  0  0  0  1  0  0  0  0  0  0
   -1.8690    9.4610   -9.6530 C   0  0  0  0  0  3  0  0  0  0  0  0
   -2.8590    6.0150   -7.7190 C   0  0  0  0  0  2  0  0  0  0  0  0
   -4.0430    5.8380   -7.3240 N   0  0  0  0  0  1  0  0  0  0  0  0
    2.8250    6.8620   -9.3050 S   0  0  0  0  0  0  0  0  0  0  0  0
    3.1120    5.2730  -10.1380 C   0  0  0  0  0  2  0  0  0  0  0  0
    3.7170    0.3570   -9.1740 C   0  0  0  0  0  1  0  0  0  0  0  0
    3.4550    1.7530   -8.6910 C   0  0  0  0  0  0  0  0  0  0  0  0
    3.1530    1.9890   -7.3450 C   0  0  0  0  0  3  0  0  0  0  0  0
    2.8760    3.2810   -6.8980 C   0  0  0  0  0  3  0  0  0  0  0  0
    2.8840    4.3460   -7.7970 C   0  0  0  0  0  3  0  0  0  0  0  0
    3.1650    4.1300   -9.1540 C   0  0  0  0  0  0  0  0  0  0  0  0
    3.4490    2.8270   -9.5900 C   0  0  0  0  0  3  0  0  0  0  0  0
  1  7  1  0  0  0  0
  2  3  1  0  0  0  0
  2  1  2  0  0  0  0
  3  4  2  0  0  0  0
  4 16  1  0  0  0  0
  4  5  1  0  0  0  0
  5  6  2  0  0  0  0
  7  8  1  0  0  0  0
  7  5  1  0  0  0  0
  9 15  1  0  0  0  0
  9  3  1  0  0  0  0
 10  9  2  0  0  0  0
 11 12  2  0  0  0  0
 11 10  1  0  0  0  0
 12 13  1  0  0  0  0
 13 14  1  0  0  0  0
 13 15  2  0  0  0  0
 16 17  1  0  0  0  0
 18  1  1  0  0  0  0
 19 18  1  0  0  0  0
 19 25  1  0  0  0  0
 20 21  1  0  0  0  0
 21 22  1  0  0  0  0
 22 23  2  0  0  0  0
 24 23  1  0  0  0  0
 25 24  2  0  0  0  0
 26 25  1  0  0  0  0
 26 21  2  0  0  0  0
M  END
>  <minimizedAffinity>
48.3867149

$$$$
