
 OpenBabel09122222393D

 26 28  0  0  0  0  0  0  0  0999 V2000
   -2.2350    4.5950   -7.8240 C   0  0  0  0  0  0  0  0  0  0  0  0
   -2.6830    5.6440   -8.4230 N   0  0  0  0  0  0  0  0  0  0  0  0
   -1.7500    6.5830   -8.8140 C   0  0  0  0  0  0  0  0  0  0  0  0
   -0.4320    6.4920   -8.5550 C   0  0  0  0  0  0  0  0  0  0  0  0
    0.0350    5.2950   -7.8260 C   0  0  0  0  0  0  0  0  0  0  0  0
    1.2080    5.1220   -7.5170 O   0  0  0  0  0  0  0  0  0  0  0  0
   -0.9310    4.3810   -7.5230 N   0  0  0  0  0  0  0  0  0  0  0  0
   -0.6620    3.5460   -7.0240 H   0  0  0  0  0  0  0  0  0  0  0  0
   -2.2830    7.7290   -9.5770 C   0  0  0  0  0  0  0  0  0  0  0  0
   -3.1100    7.5210  -10.6880 C   0  0  0  0  0  3  0  0  0  0  0  0
   -3.6110    8.6070  -11.4050 C   0  0  0  0  0  3  0  0  0  0  0  0
   -3.2890    9.9080  -11.0170 C   0  0  0  0  0  3  0  0  0  0  0  0
   -2.4620   10.1350   -9.9100 C   0  0  0  0  0  0  0  0  0  0  0  0
   -2.1550   11.5350   -9.4680 C   0  0  0  0  0  1  0  0  0  0  0  0
   -1.9750    9.0380   -9.1840 C   0  0  0  0  0  3  0  0  0  0  0  0
    0.6000    7.5110   -9.0120 C   0  0  0  0  0  2  0  0  0  0  0  0
    1.4550    8.3550   -9.3910 N   0  0  0  0  0  1  0  0  0  0  0  0
   -3.2800    3.3060   -7.3350 S   0  0  0  0  0  0  0  0  0  0  0  0
   -2.1020    1.9310   -7.4830 C   0  0  0  0  0  2  0  0  0  0  0  0
   -1.5770    1.1670   -2.5220 C   0  0  0  0  0  1  0  0  0  0  0  0
   -0.9690    1.4520   -3.8640 C   0  0  0  0  0  0  0  0  0  0  0  0
    0.4000    1.7190   -3.9770 C   0  0  0  0  0  3  0  0  0  0  0  0
    0.9620    2.0160   -5.2180 C   0  0  0  0  0  3  0  0  0  0  0  0
    0.1570    2.0640   -6.3550 C   0  0  0  0  0  3  0  0  0  0  0  0
   -1.2200    1.8180   -6.2620 C   0  0  0  0  0  0  0  0  0  0  0  0
   -1.7740    1.5140   -5.0100 C   0  0  0  0  0  3  0  0  0  0  0  0
  1  7  1  0  0  0  0
  1 18  1  0  0  0  0
  2  1  2  0  0  0  0
  3  4  2  0  0  0  0
  3  2  1  0  0  0  0
  4  5  1  0  0  0  0
  5  7  1  0  0  0  0
  5  6  2  0  0  0  0
  7  8  1  0  0  0  0
  9 15  1  0  0  0  0
  9  3  1  0  0  0  0
 10  9  2  0  0  0  0
 11 12  2  0  0  0  0
 11 10  1  0  0  0  0
 12 13  1  0  0  0  0
 13 14  1  0  0  0  0
 13 15  2  0  0  0  0
 16  4  1  0  0  0  0
 17 16  1  0  0  0  0
 19 18  1  0  0  0  0
 19 25  1  0  0  0  0
 21 20  1  0  0  0  0
 22 21  1  0  0  0  0
 23 22  2  0  0  0  0
 24 25  2  0  0  0  0
 24 23  1  0  0  0  0
 25 26  1  0  0  0  0
 26 21  2  0  0  0  0
M  END
>  <minimizedAffinity>
47.6017799

$$$$
