
 OpenBabel09122222393D

 26 28  0  0  0  0  0  0  0  0999 V2000
    0.4350    7.2880   -9.2630 C   0  0  0  0  0  0  0  0  0  0  0  0
   -0.2480    6.4180   -8.6040 N   0  0  0  0  0  0  0  0  0  0  0  0
   -1.6160    6.4360   -8.7860 C   0  0  0  0  0  0  0  0  0  0  0  0
   -2.2660    7.3310   -9.5520 C   0  0  0  0  0  0  0  0  0  0  0  0
   -1.4480    8.3410  -10.2560 C   0  0  0  0  0  0  0  0  0  0  0  0
   -1.9370    9.2170  -10.9590 O   0  0  0  0  0  0  0  0  0  0  0  0
   -0.1010    8.2280  -10.0790 N   0  0  0  0  0  0  0  0  0  0  0  0
    0.5010    8.8960  -10.5390 H   0  0  0  0  0  0  0  0  0  0  0  0
   -2.3630    5.3710   -8.0880 C   0  0  0  0  0  0  0  0  0  0  0  0
   -3.5280    5.6720   -7.3690 C   0  0  0  0  0  3  0  0  0  0  0  0
   -4.2290    4.6610   -6.7120 C   0  0  0  0  0  3  0  0  0  0  0  0
   -3.7730    3.3440   -6.7690 C   0  0  0  0  0  3  0  0  0  0  0  0
   -2.6110    3.0250   -7.4810 C   0  0  0  0  0  0  0  0  0  0  0  0
   -2.1490    1.6010   -7.5790 C   0  0  0  0  0  1  0  0  0  0  0  0
   -1.9190    4.0430   -8.1520 C   0  0  0  0  0  3  0  0  0  0  0  0
   -3.7700    7.3320   -9.7770 C   0  0  0  0  0  2  0  0  0  0  0  0
   -5.0160    7.3320   -9.9640 N   0  0  0  0  0  1  0  0  0  0  0  0
    2.1630    7.3430   -9.1850 S   0  0  0  0  0  0  0  0  0  0  0  0
    2.5220    5.7690  -10.0200 C   0  0  0  0  0  2  0  0  0  0  0  0
    3.7810    0.9830   -9.0340 C   0  0  0  0  0  1  0  0  0  0  0  0
    3.3300    2.3320   -8.5570 C   0  0  0  0  0  0  0  0  0  0  0  0
    2.9920    2.5300   -7.2140 C   0  0  0  0  0  3  0  0  0  0  0  0
    2.5410    3.7730   -6.7740 C   0  0  0  0  0  3  0  0  0  0  0  0
    2.4090    4.8270   -7.6770 C   0  0  0  0  0  3  0  0  0  0  0  0
    2.7240    4.6470   -9.0310 C   0  0  0  0  0  0  0  0  0  0  0  0
    3.1830    3.3920   -9.4610 C   0  0  0  0  0  3  0  0  0  0  0  0
  1 18  1  0  0  0  0
  1  2  2  0  0  0  0
  3  2  1  0  0  0  0
  3  9  1  0  0  0  0
  4  3  2  0  0  0  0
  5  7  1  0  0  0  0
  5  4  1  0  0  0  0
  6  5  2  0  0  0  0
  7  1  1  0  0  0  0
  8  7  1  0  0  0  0
  9 10  1  0  0  0  0
 10 11  2  0  0  0  0
 12 11  1  0  0  0  0
 13 12  2  0  0  0  0
 14 13  1  0  0  0  0
 15  9  2  0  0  0  0
 15 13  1  0  0  0  0
 16  4  1  0  0  0  0
 17 16  1  0  0  0  0
 19 18  1  0  0  0  0
 19 25  1  0  0  0  0
 20 21  1  0  0  0  0
 21 22  1  0  0  0  0
 22 23  2  0  0  0  0
 24 23  1  0  0  0  0
 25 24  2  0  0  0  0
 26 25  1  0  0  0  0
 26 21  2  0  0  0  0
M  END
>  <minimizedAffinity>
49.4746475

$$$$
