
 OpenBabel09122222393D

 26 28  0  0  0  0  0  0  0  0999 V2000
    1.1650    6.5670   -8.9520 C   0  0  0  0  0  0  0  0  0  0  0  0
    0.2750    7.3150   -9.5060 N   0  0  0  0  0  0  0  0  0  0  0  0
   -1.0340    7.1160   -9.1190 C   0  0  0  0  0  0  0  0  0  0  0  0
   -1.4310    6.1620   -8.2560 C   0  0  0  0  0  0  0  0  0  0  0  0
   -0.3830    5.2950   -7.6760 C   0  0  0  0  0  0  0  0  0  0  0  0
   -0.6350    4.3810   -6.9000 O   0  0  0  0  0  0  0  0  0  0  0  0
    0.8930    5.5860   -8.0570 N   0  0  0  0  0  0  0  0  0  0  0  0
    1.6440    5.0200   -7.6880 H   0  0  0  0  0  0  0  0  0  0  0  0
   -2.0190    8.0480   -9.7040 C   0  0  0  0  0  0  0  0  0  0  0  0
   -3.1700    7.5610  -10.3370 C   0  0  0  0  0  3  0  0  0  0  0  0
   -4.0960    8.4470  -10.8880 C   0  0  0  0  0  3  0  0  0  0  0  0
   -3.8800    9.8230  -10.8080 C   0  0  0  0  0  3  0  0  0  0  0  0
   -2.7340   10.3260  -10.1810 C   0  0  0  0  0  0  0  0  0  0  0  0
   -2.5270   11.8070  -10.0570 C   0  0  0  0  0  1  0  0  0  0  0  0
   -1.8150    9.4310   -9.6160 C   0  0  0  0  0  3  0  0  0  0  0  0
   -2.8690    5.9620   -7.8060 C   0  0  0  0  0  2  0  0  0  0  0  0
   -4.0610    5.7950   -7.4310 N   0  0  0  0  0  1  0  0  0  0  0  0
    2.8520    6.7480   -9.2910 S   0  0  0  0  0  0  0  0  0  0  0  0
    3.1370    5.1500  -10.1060 C   0  0  0  0  0  2  0  0  0  0  0  0
    2.2100    3.4120   -5.4600 C   0  0  0  0  0  1  0  0  0  0  0  0
    2.6370    3.1680   -6.8770 C   0  0  0  0  0  0  0  0  0  0  0  0
    3.0890    1.9020   -7.2700 C   0  0  0  0  0  3  0  0  0  0  0  0
    3.5170    1.6800   -8.5780 C   0  0  0  0  0  3  0  0  0  0  0  0
    3.5130    2.7240   -9.5010 C   0  0  0  0  0  3  0  0  0  0  0  0
    3.0830    4.0040   -9.1240 C   0  0  0  0  0  0  0  0  0  0  0  0
    2.6480    4.2160   -7.8070 C   0  0  0  0  0  3  0  0  0  0  0  0
  1  7  1  0  0  0  0
  2  3  1  0  0  0  0
  2  1  2  0  0  0  0
  3  4  2  0  0  0  0
  4 16  1  0  0  0  0
  4  5  1  0  0  0  0
  5  6  2  0  0  0  0
  7  8  1  0  0  0  0
  7  5  1  0  0  0  0
  9 15  1  0  0  0  0
  9  3  1  0  0  0  0
 10  9  2  0  0  0  0
 11 12  2  0  0  0  0
 11 10  1  0  0  0  0
 12 13  1  0  0  0  0
 13 14  1  0  0  0  0
 13 15  2  0  0  0  0
 16 17  1  0  0  0  0
 18  1  1  0  0  0  0
 19 18  1  0  0  0  0
 19 25  1  0  0  0  0
 21 20  1  0  0  0  0
 22 21  1  0  0  0  0
 23 22  2  0  0  0  0
 24 25  2  0  0  0  0
 24 23  1  0  0  0  0
 25 26  1  0  0  0  0
 26 21  2  0  0  0  0
M  END
>  <minimizedAffinity>
48.3876801

$$$$
