
 OpenBabel09122218193D

 26 28  0  0  0  0  0  0  0  0999 V2000
   -2.4890    4.7760   -7.6460 C   0  0  0  0  0  0  0  0  0  0  0  0
   -2.8820    5.8250   -8.2820 N   0  0  0  0  0  0  0  0  0  0  0  0
   -1.8970    6.6580   -8.7740 C   0  0  0  0  0  0  0  0  0  0  0  0
   -0.5790    6.4690   -8.5780 C   0  0  0  0  0  0  0  0  0  0  0  0
   -0.1730    5.2770   -7.8040 C   0  0  0  0  0  0  0  0  0  0  0  0
    0.9970    5.0220   -7.5460 O   0  0  0  0  0  0  0  0  0  0  0  0
   -1.1930    4.4680   -7.4000 N   0  0  0  0  0  0  0  0  0  0  0  0
   -0.9660    3.6410   -6.8670 H   0  0  0  0  0  0  0  0  0  0  0  0
   -2.3750    7.8020   -9.5750 C   0  0  0  0  0  0  0  0  0  0  0  0
   -3.1740    7.5940  -10.7080 C   0  0  0  0  0  3  0  0  0  0  0  0
   -3.6220    8.6800  -11.4600 C   0  0  0  0  0  3  0  0  0  0  0  0
   -3.2770    9.9780  -11.0870 C   0  0  0  0  0  3  0  0  0  0  0  0
   -2.4780   10.2050   -9.9610 C   0  0  0  0  0  0  0  0  0  0  0  0
   -2.1450   11.6050   -9.5360 C   0  0  0  0  0  1  0  0  0  0  0  0
   -2.0430    9.1110   -9.1990 C   0  0  0  0  0  3  0  0  0  0  0  0
    0.5070    7.3690   -9.1460 C   0  0  0  0  0  2  0  0  0  0  0  0
    1.4070    8.1150   -9.6170 N   0  0  0  0  0  1  0  0  0  0  0  0
   -3.6090    3.6090   -7.0300 S   0  0  0  0  0  0  0  0  0  0  0  0
   -2.6110    2.1130   -7.2880 C   0  0  0  0  0  2  0  0  0  0  0  0
    2.2670    2.1750   -5.9960 C   0  0  0  0  0  1  0  0  0  0  0  0
    0.8250    2.0020   -5.6190 C   0  0  0  0  0  0  0  0  0  0  0  0
    0.4780    1.6060   -4.3220 C   0  0  0  0  0  3  0  0  0  0  0  0
   -0.8590    1.4110   -3.9780 C   0  0  0  0  0  3  0  0  0  0  0  0
   -1.8590    1.5960   -4.9310 C   0  0  0  0  0  3  0  0  0  0  0  0
   -1.5330    1.9740   -6.2410 C   0  0  0  0  0  0  0  0  0  0  0  0
   -0.1840    2.1730   -6.5750 C   0  0  0  0  0  3  0  0  0  0  0  0
  1  7  1  0  0  0  0
  1 18  1  0  0  0  0
  2  1  2  0  0  0  0
  3  4  2  0  0  0  0
  3  2  1  0  0  0  0
  4  5  1  0  0  0  0
  5  6  2  0  0  0  0
  5  7  1  0  0  0  0
  7  8  1  0  0  0  0
  9 15  1  0  0  0  0
  9  3  1  0  0  0  0
 10  9  2  0  0  0  0
 11 12  2  0  0  0  0
 11 10  1  0  0  0  0
 12 13  1  0  0  0  0
 13 14  1  0  0  0  0
 13 15  2  0  0  0  0
 16  4  1  0  0  0  0
 17 16  1  0  0  0  0
 19 18  1  0  0  0  0
 19 25  1  0  0  0  0
 20 21  1  0  0  0  0
 21 22  1  0  0  0  0
 22 23  2  0  0  0  0
 24 23  1  0  0  0  0
 25 24  2  0  0  0  0
 26 25  1  0  0  0  0
 26 21  2  0  0  0  0
M  END
>  <minimizedAffinity>
46.96241

$$$$

 OpenBabel09122218193D

 26 28  0  0  0  0  0  0  0  0999 V2000
   -2.2350    4.5950   -7.8240 C   0  0  0  0  0  0  0  0  0  0  0  0
   -2.6830    5.6440   -8.4230 N   0  0  0  0  0  0  0  0  0  0  0  0
   -1.7500    6.5830   -8.8140 C   0  0  0  0  0  0  0  0  0  0  0  0
   -0.4320    6.4920   -8.5550 C   0  0  0  0  0  0  0  0  0  0  0  0
    0.0350    5.2950   -7.8260 C   0  0  0  0  0  0  0  0  0  0  0  0
    1.2080    5.1220   -7.5170 O   0  0  0  0  0  0  0  0  0  0  0  0
   -0.9310    4.3810   -7.5230 N   0  0  0  0  0  0  0  0  0  0  0  0
   -0.6620    3.5460   -7.0240 H   0  0  0  0  0  0  0  0  0  0  0  0
   -2.2830    7.7290   -9.5770 C   0  0  0  0  0  0  0  0  0  0  0  0
   -3.1100    7.5210  -10.6880 C   0  0  0  0  0  3  0  0  0  0  0  0
   -3.6110    8.6070  -11.4050 C   0  0  0  0  0  3  0  0  0  0  0  0
   -3.2890    9.9080  -11.0170 C   0  0  0  0  0  3  0  0  0  0  0  0
   -2.4620   10.1350   -9.9100 C   0  0  0  0  0  0  0  0  0  0  0  0
   -2.1550   11.5350   -9.4680 C   0  0  0  0  0  1  0  0  0  0  0  0
   -1.9750    9.0380   -9.1840 C   0  0  0  0  0  3  0  0  0  0  0  0
    0.6000    7.5110   -9.0120 C   0  0  0  0  0  2  0  0  0  0  0  0
    1.4550    8.3550   -9.3910 N   0  0  0  0  0  1  0  0  0  0  0  0
   -3.2800    3.3060   -7.3350 S   0  0  0  0  0  0  0  0  0  0  0  0
   -2.1020    1.9310   -7.4830 C   0  0  0  0  0  2  0  0  0  0  0  0
   -1.5770    1.1670   -2.5220 C   0  0  0  0  0  1  0  0  0  0  0  0
   -0.9690    1.4520   -3.8640 C   0  0  0  0  0  0  0  0  0  0  0  0
    0.4000    1.7190   -3.9770 C   0  0  0  0  0  3  0  0  0  0  0  0
    0.9620    2.0160   -5.2180 C   0  0  0  0  0  3  0  0  0  0  0  0
    0.1570    2.0640   -6.3550 C   0  0  0  0  0  3  0  0  0  0  0  0
   -1.2200    1.8180   -6.2620 C   0  0  0  0  0  0  0  0  0  0  0  0
   -1.7740    1.5140   -5.0100 C   0  0  0  0  0  3  0  0  0  0  0  0
  1  7  1  0  0  0  0
  1 18  1  0  0  0  0
  2  1  2  0  0  0  0
  3  4  2  0  0  0  0
  3  2  1  0  0  0  0
  4  5  1  0  0  0  0
  5  7  1  0  0  0  0
  5  6  2  0  0  0  0
  7  8  1  0  0  0  0
  9 15  1  0  0  0  0
  9  3  1  0  0  0  0
 10  9  2  0  0  0  0
 11 12  2  0  0  0  0
 11 10  1  0  0  0  0
 12 13  1  0  0  0  0
 13 14  1  0  0  0  0
 13 15  2  0  0  0  0
 16  4  1  0  0  0  0
 17 16  1  0  0  0  0
 19 18  1  0  0  0  0
 19 25  1  0  0  0  0
 21 20  1  0  0  0  0
 22 21  1  0  0  0  0
 23 22  2  0  0  0  0
 24 25  2  0  0  0  0
 24 23  1  0  0  0  0
 25 26  1  0  0  0  0
 26 21  2  0  0  0  0
M  END
>  <minimizedAffinity>
47.6017799

$$$$

 OpenBabel09122218193D

 26 28  0  0  0  0  0  0  0  0999 V2000
    1.1460    6.6610   -8.9370 C   0  0  0  0  0  0  0  0  0  0  0  0
    0.2370    7.3840   -9.4940 N   0  0  0  0  0  0  0  0  0  0  0  0
   -1.0630    7.1710   -9.0830 C   0  0  0  0  0  0  0  0  0  0  0  0
   -1.4320    6.2290   -8.1950 C   0  0  0  0  0  0  0  0  0  0  0  0
   -0.3620    5.3910   -7.6130 C   0  0  0  0  0  0  0  0  0  0  0  0
   -0.5870    4.4900   -6.8150 O   0  0  0  0  0  0  0  0  0  0  0  0
    0.9040    5.6950   -8.0190 N   0  0  0  0  0  0  0  0  0  0  0  0
    1.6700    5.1500   -7.6500 H   0  0  0  0  0  0  0  0  0  0  0  0
   -2.0720    8.0740   -9.6720 C   0  0  0  0  0  0  0  0  0  0  0  0
   -3.2440    7.5580  -10.2410 C   0  0  0  0  0  3  0  0  0  0  0  0
   -4.1920    8.4170  -10.7960 C   0  0  0  0  0  3  0  0  0  0  0  0
   -3.9770    9.7960  -10.7850 C   0  0  0  0  0  3  0  0  0  0  0  0
   -2.8110   10.3280  -10.2230 C   0  0  0  0  0  0  0  0  0  0  0  0
   -2.6040   11.8140  -10.1730 C   0  0  0  0  0  1  0  0  0  0  0  0
   -1.8690    9.4610   -9.6530 C   0  0  0  0  0  3  0  0  0  0  0  0
   -2.8590    6.0150   -7.7190 C   0  0  0  0  0  2  0  0  0  0  0  0
   -4.0430    5.8380   -7.3240 N   0  0  0  0  0  1  0  0  0  0  0  0
    2.8250    6.8620   -9.3050 S   0  0  0  0  0  0  0  0  0  0  0  0
    3.1120    5.2730  -10.1380 C   0  0  0  0  0  2  0  0  0  0  0  0
    3.7170    0.3570   -9.1740 C   0  0  0  0  0  1  0  0  0  0  0  0
    3.4550    1.7530   -8.6910 C   0  0  0  0  0  0  0  0  0  0  0  0
    3.1530    1.9890   -7.3450 C   0  0  0  0  0  3  0  0  0  0  0  0
    2.8760    3.2810   -6.8980 C   0  0  0  0  0  3  0  0  0  0  0  0
    2.8840    4.3460   -7.7970 C   0  0  0  0  0  3  0  0  0  0  0  0
    3.1650    4.1300   -9.1540 C   0  0  0  0  0  0  0  0  0  0  0  0
    3.4490    2.8270   -9.5900 C   0  0  0  0  0  3  0  0  0  0  0  0
  1  7  1  0  0  0  0
  2  3  1  0  0  0  0
  2  1  2  0  0  0  0
  3  4  2  0  0  0  0
  4 16  1  0  0  0  0
  4  5  1  0  0  0  0
  5  6  2  0  0  0  0
  7  8  1  0  0  0  0
  7  5  1  0  0  0  0
  9 15  1  0  0  0  0
  9  3  1  0  0  0  0
 10  9  2  0  0  0  0
 11 12  2  0  0  0  0
 11 10  1  0  0  0  0
 12 13  1  0  0  0  0
 13 14  1  0  0  0  0
 13 15  2  0  0  0  0
 16 17  1  0  0  0  0
 18  1  1  0  0  0  0
 19 18  1  0  0  0  0
 19 25  1  0  0  0  0
 20 21  1  0  0  0  0
 21 22  1  0  0  0  0
 22 23  2  0  0  0  0
 24 23  1  0  0  0  0
 25 24  2  0  0  0  0
 26 25  1  0  0  0  0
 26 21  2  0  0  0  0
M  END
>  <minimizedAffinity>
48.3867149

$$$$

 OpenBabel09122218193D

 26 28  0  0  0  0  0  0  0  0999 V2000
    1.1650    6.5670   -8.9520 C   0  0  0  0  0  0  0  0  0  0  0  0
    0.2750    7.3150   -9.5060 N   0  0  0  0  0  0  0  0  0  0  0  0
   -1.0340    7.1160   -9.1190 C   0  0  0  0  0  0  0  0  0  0  0  0
   -1.4310    6.1620   -8.2560 C   0  0  0  0  0  0  0  0  0  0  0  0
   -0.3830    5.2950   -7.6760 C   0  0  0  0  0  0  0  0  0  0  0  0
   -0.6350    4.3810   -6.9000 O   0  0  0  0  0  0  0  0  0  0  0  0
    0.8930    5.5860   -8.0570 N   0  0  0  0  0  0  0  0  0  0  0  0
    1.6440    5.0200   -7.6880 H   0  0  0  0  0  0  0  0  0  0  0  0
   -2.0190    8.0480   -9.7040 C   0  0  0  0  0  0  0  0  0  0  0  0
   -3.1700    7.5610  -10.3370 C   0  0  0  0  0  3  0  0  0  0  0  0
   -4.0960    8.4470  -10.8880 C   0  0  0  0  0  3  0  0  0  0  0  0
   -3.8800    9.8230  -10.8080 C   0  0  0  0  0  3  0  0  0  0  0  0
   -2.7340   10.3260  -10.1810 C   0  0  0  0  0  0  0  0  0  0  0  0
   -2.5270   11.8070  -10.0570 C   0  0  0  0  0  1  0  0  0  0  0  0
   -1.8150    9.4310   -9.6160 C   0  0  0  0  0  3  0  0  0  0  0  0
   -2.8690    5.9620   -7.8060 C   0  0  0  0  0  2  0  0  0  0  0  0
   -4.0610    5.7950   -7.4310 N   0  0  0  0  0  1  0  0  0  0  0  0
    2.8520    6.7480   -9.2910 S   0  0  0  0  0  0  0  0  0  0  0  0
    3.1370    5.1500  -10.1060 C   0  0  0  0  0  2  0  0  0  0  0  0
    2.2100    3.4120   -5.4600 C   0  0  0  0  0  1  0  0  0  0  0  0
    2.6370    3.1680   -6.8770 C   0  0  0  0  0  0  0  0  0  0  0  0
    3.0890    1.9020   -7.2700 C   0  0  0  0  0  3  0  0  0  0  0  0
    3.5170    1.6800   -8.5780 C   0  0  0  0  0  3  0  0  0  0  0  0
    3.5130    2.7240   -9.5010 C   0  0  0  0  0  3  0  0  0  0  0  0
    3.0830    4.0040   -9.1240 C   0  0  0  0  0  0  0  0  0  0  0  0
    2.6480    4.2160   -7.8070 C   0  0  0  0  0  3  0  0  0  0  0  0
  1  7  1  0  0  0  0
  2  3  1  0  0  0  0
  2  1  2  0  0  0  0
  3  4  2  0  0  0  0
  4 16  1  0  0  0  0
  4  5  1  0  0  0  0
  5  6  2  0  0  0  0
  7  8  1  0  0  0  0
  7  5  1  0  0  0  0
  9 15  1  0  0  0  0
  9  3  1  0  0  0  0
 10  9  2  0  0  0  0
 11 12  2  0  0  0  0
 11 10  1  0  0  0  0
 12 13  1  0  0  0  0
 13 14  1  0  0  0  0
 13 15  2  0  0  0  0
 16 17  1  0  0  0  0
 18  1  1  0  0  0  0
 19 18  1  0  0  0  0
 19 25  1  0  0  0  0
 21 20  1  0  0  0  0
 22 21  1  0  0  0  0
 23 22  2  0  0  0  0
 24 25  2  0  0  0  0
 24 23  1  0  0  0  0
 25 26  1  0  0  0  0
 26 21  2  0  0  0  0
M  END
>  <minimizedAffinity>
48.3876801

$$$$

 OpenBabel09122218193D

 26 28  0  0  0  0  0  0  0  0999 V2000
   -2.2510    4.6370   -7.6680 C   0  0  0  0  0  0  0  0  0  0  0  0
   -2.6940    5.6800   -8.2800 N   0  0  0  0  0  0  0  0  0  0  0  0
   -1.7520    6.5760   -8.7440 C   0  0  0  0  0  0  0  0  0  0  0  0
   -0.4270    6.4510   -8.5440 C   0  0  0  0  0  0  0  0  0  0  0  0
    0.0370    5.2620   -7.7980 C   0  0  0  0  0  0  0  0  0  0  0  0
    1.2180    5.0620   -7.5390 O   0  0  0  0  0  0  0  0  0  0  0  0
   -0.9410    4.3900   -7.4210 N   0  0  0  0  0  0  0  0  0  0  0  0
   -0.6740    3.5630   -6.9080 H   0  0  0  0  0  0  0  0  0  0  0  0
   -2.2850    7.7140   -9.5190 C   0  0  0  0  0  0  0  0  0  0  0  0
   -3.1300    7.4950  -10.6140 C   0  0  0  0  0  3  0  0  0  0  0  0
   -3.6300    8.5740  -11.3420 C   0  0  0  0  0  3  0  0  0  0  0  0
   -3.2910    9.8780  -10.9810 C   0  0  0  0  0  3  0  0  0  0  0  0
   -2.4460   10.1150   -9.8910 C   0  0  0  0  0  0  0  0  0  0  0  0
   -2.1190   11.5200   -9.4760 C   0  0  0  0  0  1  0  0  0  0  0  0
   -1.9590    9.0270   -9.1530 C   0  0  0  0  0  3  0  0  0  0  0  0
    0.6130    7.4200   -9.0820 C   0  0  0  0  0  2  0  0  0  0  0  0
    1.4760    8.2250   -9.5280 N   0  0  0  0  0  1  0  0  0  0  0  0
   -3.3100    3.3980   -7.0890 S   0  0  0  0  0  0  0  0  0  0  0  0
   -2.1580    1.9950   -7.1720 C   0  0  0  0  0  2  0  0  0  0  0  0
   -3.5000   -1.4050   -3.6920 C   0  0  0  0  0  1  0  0  0  0  0  0
   -2.6080   -0.2830   -4.1370 C   0  0  0  0  0  0  0  0  0  0  0  0
   -1.6560    0.2510   -3.2610 C   0  0  0  0  0  3  0  0  0  0  0  0
   -0.8480    1.3150   -3.6590 C   0  0  0  0  0  3  0  0  0  0  0  0
   -0.9960    1.8650   -4.9310 C   0  0  0  0  0  3  0  0  0  0  0  0
   -1.9560    1.3590   -5.8180 C   0  0  0  0  0  0  0  0  0  0  0  0
   -2.7600    0.2830   -5.4090 C   0  0  0  0  0  3  0  0  0  0  0  0
  1  7  1  0  0  0  0
  1 18  1  0  0  0  0
  2  1  2  0  0  0  0
  3  4  2  0  0  0  0
  3  2  1  0  0  0  0
  4  5  1  0  0  0  0
  5  6  2  0  0  0  0
  5  7  1  0  0  0  0
  7  8  1  0  0  0  0
  9 15  1  0  0  0  0
  9  3  1  0  0  0  0
 10  9  2  0  0  0  0
 11 12  2  0  0  0  0
 11 10  1  0  0  0  0
 12 13  1  0  0  0  0
 13 14  1  0  0  0  0
 13 15  2  0  0  0  0
 16  4  1  0  0  0  0
 17 16  1  0  0  0  0
 19 18  1  0  0  0  0
 19 25  1  0  0  0  0
 21 20  1  0  0  0  0
 21 22  1  0  0  0  0
 23 22  2  0  0  0  0
 24 23  1  0  0  0  0
 25 26  1  0  0  0  0
 25 24  2  0  0  0  0
 26 21  2  0  0  0  0
M  END
>  <minimizedAffinity>
48.6017494

$$$$

 OpenBabel09122218193D

 26 28  0  0  0  0  0  0  0  0999 V2000
    1.4200    5.7380   -8.0870 C   0  0  0  0  0  0  0  0  0  0  0  0
    1.0650    5.2070   -6.9690 N   0  0  0  0  0  0  0  0  0  0  0  0
    1.6750    4.0180   -6.6240 C   0  0  0  0  0  0  0  0  0  0  0  0
    2.5580    3.3670   -7.4040 C   0  0  0  0  0  0  0  0  0  0  0  0
    2.9050    3.9890   -8.6990 C   0  0  0  0  0  0  0  0  0  0  0  0
    3.6780    3.4710   -9.4970 O   0  0  0  0  0  0  0  0  0  0  0  0
    2.3110    5.1900   -8.9490 N   0  0  0  0  0  0  0  0  0  0  0  0
    2.5150    5.6540   -9.8220 H   0  0  0  0  0  0  0  0  0  0  0  0
    1.3150    3.4810   -5.2970 C   0  0  0  0  0  0  0  0  0  0  0  0
    1.8920    4.0090   -4.1350 C   0  0  0  0  0  3  0  0  0  0  0  0
    1.5470    3.4960   -2.8840 C   0  0  0  0  0  3  0  0  0  0  0  0
    0.6240    2.4550   -2.7860 C   0  0  0  0  0  3  0  0  0  0  0  0
    0.0390    1.9140   -3.9370 C   0  0  0  0  0  0  0  0  0  0  0  0
   -0.9880    0.8260   -3.8250 C   0  0  0  0  0  1  0  0  0  0  0  0
    0.3780    2.4440   -5.1900 C   0  0  0  0  0  3  0  0  0  0  0  0
    3.2540    2.0740   -7.0110 C   0  0  0  0  0  2  0  0  0  0  0  0
    3.8310    1.0010   -6.6860 N   0  0  0  0  0  1  0  0  0  0  0  0
    0.7880    7.2590   -8.6180 S   0  0  0  0  0  0  0  0  0  0  0  0
   -0.9610    6.9830   -8.2120 C   0  0  0  0  0  2  0  0  0  0  0  0
   -2.6440   11.2970  -10.2170 C   0  0  0  0  0  1  0  0  0  0  0  0
   -2.6910    9.8000  -10.1290 C   0  0  0  0  0  0  0  0  0  0  0  0
   -3.6530    9.0810  -10.8460 C   0  0  0  0  0  3  0  0  0  0  0  0
   -3.7210    7.6920  -10.7410 C   0  0  0  0  0  3  0  0  0  0  0  0
   -2.8370    7.0120   -9.9050 C   0  0  0  0  0  3  0  0  0  0  0  0
   -1.8770    7.7140   -9.1630 C   0  0  0  0  0  0  0  0  0  0  0  0
   -1.8130    9.1110   -9.2820 C   0  0  0  0  0  3  0  0  0  0  0  0
  1  2  2  0  0  0  0
  2  3  1  0  0  0  0
  3  9  1  0  0  0  0
  4 16  1  0  0  0  0
  4  3  2  0  0  0  0
  5  4  1  0  0  0  0
  6  5  2  0  0  0  0
  7  5  1  0  0  0  0
  7  1  1  0  0  0  0
  8  7  1  0  0  0  0
  9 15  2  0  0  0  0
  9 10  1  0  0  0  0
 10 11  2  0  0  0  0
 11 12  1  0  0  0  0
 13 14  1  0  0  0  0
 13 12  2  0  0  0  0
 15 13  1  0  0  0  0
 16 17  1  0  0  0  0
 18 19  1  0  0  0  0
 18  1  1  0  0  0  0
 20 21  1  0  0  0  0
 21 26  1  0  0  0  0
 22 23  1  0  0  0  0
 22 21  2  0  0  0  0
 23 24  2  0  0  0  0
 24 25  1  0  0  0  0
 25 19  1  0  0  0  0
 26 25  2  0  0  0  0
M  END
>  <minimizedAffinity>
49.3945351

$$$$

 OpenBabel09122218193D

 26 28  0  0  0  0  0  0  0  0999 V2000
    0.4350    7.2880   -9.2630 C   0  0  0  0  0  0  0  0  0  0  0  0
   -0.2480    6.4180   -8.6040 N   0  0  0  0  0  0  0  0  0  0  0  0
   -1.6160    6.4360   -8.7860 C   0  0  0  0  0  0  0  0  0  0  0  0
   -2.2660    7.3310   -9.5520 C   0  0  0  0  0  0  0  0  0  0  0  0
   -1.4480    8.3410  -10.2560 C   0  0  0  0  0  0  0  0  0  0  0  0
   -1.9370    9.2170  -10.9590 O   0  0  0  0  0  0  0  0  0  0  0  0
   -0.1010    8.2280  -10.0790 N   0  0  0  0  0  0  0  0  0  0  0  0
    0.5010    8.8960  -10.5390 H   0  0  0  0  0  0  0  0  0  0  0  0
   -2.3630    5.3710   -8.0880 C   0  0  0  0  0  0  0  0  0  0  0  0
   -3.5280    5.6720   -7.3690 C   0  0  0  0  0  3  0  0  0  0  0  0
   -4.2290    4.6610   -6.7120 C   0  0  0  0  0  3  0  0  0  0  0  0
   -3.7730    3.3440   -6.7690 C   0  0  0  0  0  3  0  0  0  0  0  0
   -2.6110    3.0250   -7.4810 C   0  0  0  0  0  0  0  0  0  0  0  0
   -2.1490    1.6010   -7.5790 C   0  0  0  0  0  1  0  0  0  0  0  0
   -1.9190    4.0430   -8.1520 C   0  0  0  0  0  3  0  0  0  0  0  0
   -3.7700    7.3320   -9.7770 C   0  0  0  0  0  2  0  0  0  0  0  0
   -5.0160    7.3320   -9.9640 N   0  0  0  0  0  1  0  0  0  0  0  0
    2.1630    7.3430   -9.1850 S   0  0  0  0  0  0  0  0  0  0  0  0
    2.5220    5.7690  -10.0200 C   0  0  0  0  0  2  0  0  0  0  0  0
    3.7810    0.9830   -9.0340 C   0  0  0  0  0  1  0  0  0  0  0  0
    3.3300    2.3320   -8.5570 C   0  0  0  0  0  0  0  0  0  0  0  0
    2.9920    2.5300   -7.2140 C   0  0  0  0  0  3  0  0  0  0  0  0
    2.5410    3.7730   -6.7740 C   0  0  0  0  0  3  0  0  0  0  0  0
    2.4090    4.8270   -7.6770 C   0  0  0  0  0  3  0  0  0  0  0  0
    2.7240    4.6470   -9.0310 C   0  0  0  0  0  0  0  0  0  0  0  0
    3.1830    3.3920   -9.4610 C   0  0  0  0  0  3  0  0  0  0  0  0
  1 18  1  0  0  0  0
  1  2  2  0  0  0  0
  3  2  1  0  0  0  0
  3  9  1  0  0  0  0
  4  3  2  0  0  0  0
  5  7  1  0  0  0  0
  5  4  1  0  0  0  0
  6  5  2  0  0  0  0
  7  1  1  0  0  0  0
  8  7  1  0  0  0  0
  9 10  1  0  0  0  0
 10 11  2  0  0  0  0
 12 11  1  0  0  0  0
 13 12  2  0  0  0  0
 14 13  1  0  0  0  0
 15  9  2  0  0  0  0
 15 13  1  0  0  0  0
 16  4  1  0  0  0  0
 17 16  1  0  0  0  0
 19 18  1  0  0  0  0
 19 25  1  0  0  0  0
 20 21  1  0  0  0  0
 21 22  1  0  0  0  0
 22 23  2  0  0  0  0
 24 23  1  0  0  0  0
 25 24  2  0  0  0  0
 26 25  1  0  0  0  0
 26 21  2  0  0  0  0
M  END
>  <minimizedAffinity>
49.4746475

$$$$
