
 OpenBabel09132204463D

 17 18  0  0  0  0  0  0  0  0999 V2000
    0.5250    2.6510   -6.3910 N   0  0  0  0  0  0  0  0  0  0  0  0
    0.9640    3.9290   -6.6950 C   0  0  0  0  0  0  0  0  0  0  0  0
    2.0720    4.3890   -6.4510 O   0  0  0  0  0  0  0  0  0  0  0  0
   -0.1090    4.6940   -7.3840 C   0  0  0  0  0  0  0  0  0  0  0  0
    0.0780    5.9580   -7.7860 C   0  0  0  0  0  3  0  0  0  0  0  0
   -1.5020    3.7110   -7.5790 S   0  0  0  0  0  0  0  0  0  0  0  0
   -0.7570    2.3280   -6.7860 C   0  0  0  0  0  0  0  0  0  0  0  0
   -1.5650    0.8820   -6.5880 S   0  0  0  0  0  0  0  0  0  0  0  0
   -0.8970    6.8030   -8.4850 C   0  0  0  0  0  0  0  0  0  0  0  0
   -1.9980    6.2510   -9.1530 C   0  0  0  0  0  3  0  0  0  0  0  0
   -2.9230    7.0800   -9.7920 C   0  0  0  0  0  3  0  0  0  0  0  0
   -2.7540    8.4630   -9.7580 C   0  0  0  0  0  0  0  0  0  0  0  0
   -3.8930    9.4840  -10.5450 Cl  0  0  0  0  0  0  0  0  0  0  0  0
   -1.6690    9.0240   -9.0870 C   0  0  0  0  0  3  0  0  0  0  0  0
   -0.7440    8.1940   -8.4470 C   0  0  0  0  0  3  0  0  0  0  0  0
    1.3410    1.8670   -4.1960 C   0  0  0  0  0  1  0  0  0  0  0  0
    1.4440    1.7400   -5.7090 C   0  0  0  0  0  2  0  0  0  0  0  0
  1 17  1  0  0  0  0
  2  3  2  0  0  0  0
  2  1  1  0  0  0  0
  4  2  1  0  0  0  0
  5  4  2  0  0  0  0
  6  4  1  0  0  0  0
  6  7  1  0  0  0  0
  7  8  2  0  0  0  0
  7  1  1  0  0  0  0
  9 15  1  0  0  0  0
  9  5  1  0  0  0  0
 10  9  2  0  0  0  0
 11 12  2  0  0  0  0
 11 10  1  0  0  0  0
 12 14  1  0  0  0  0
 13 12  1  0  0  0  0
 14 15  2  0  0  0  0
 17 16  1  0  0  0  0
M  END
>  <minimizedAffinity>
39.0464211

$$$$
