
 OpenBabel09132204463D

 17 18  0  0  0  0  0  0  0  0999 V2000
    2.5390    4.0960   -7.8470 N   0  0  0  0  0  0  0  0  0  0  0  0
    1.3990    4.5230   -7.1880 C   0  0  0  0  0  0  0  0  0  0  0  0
    1.0460    4.1870   -6.0650 O   0  0  0  0  0  0  0  0  0  0  0  0
    0.6360    5.4760   -8.0380 C   0  0  0  0  0  0  0  0  0  0  0  0
   -0.5060    6.0330   -7.6150 C   0  0  0  0  0  3  0  0  0  0  0  0
    1.4560    5.7260   -9.5250 S   0  0  0  0  0  0  0  0  0  0  0  0
    2.7630    4.6260   -9.1010 C   0  0  0  0  0  0  0  0  0  0  0  0
    4.0400    4.3330  -10.1340 S   0  0  0  0  0  0  0  0  0  0  0  0
   -1.3320    6.9930   -8.3550 C   0  0  0  0  0  0  0  0  0  0  0  0
   -2.4410    6.5800   -9.1060 C   0  0  0  0  0  3  0  0  0  0  0  0
   -3.2230    7.5180   -9.7840 C   0  0  0  0  0  3  0  0  0  0  0  0
   -2.9050    8.8720   -9.7060 C   0  0  0  0  0  0  0  0  0  0  0  0
   -3.8680   10.0280  -10.5400 Cl  0  0  0  0  0  0  0  0  0  0  0  0
   -1.8120    9.2970   -8.9530 C   0  0  0  0  0  3  0  0  0  0  0  0
   -1.0290    8.3580   -8.2750 C   0  0  0  0  0  3  0  0  0  0  0  0
    2.6610    1.9560   -6.6220 C   0  0  0  0  0  1  0  0  0  0  0  0
    3.4270    3.1510   -7.1700 C   0  0  0  0  0  2  0  0  0  0  0  0
  1  2  1  0  0  0  0
  1 17  1  0  0  0  0
  2  3  2  0  0  0  0
  4  5  2  0  0  0  0
  4  2  1  0  0  0  0
  6  7  1  0  0  0  0
  6  4  1  0  0  0  0
  7  1  1  0  0  0  0
  8  7  2  0  0  0  0
  9 15  1  0  0  0  0
  9  5  1  0  0  0  0
 10  9  2  0  0  0  0
 11 12  2  0  0  0  0
 11 10  1  0  0  0  0
 12 14  1  0  0  0  0
 13 12  1  0  0  0  0
 14 15  2  0  0  0  0
 17 16  1  0  0  0  0
M  END
>  <minimizedAffinity>
39.8348351

$$$$
