
 OpenBabel09122222393D

 32 31  0  0  1  0  0  0  0  0999 V2000
    9.9540   -0.6370    1.2620 C   0  0  0  0  0  0  0  0  0  0  0  0
   10.3340   -2.1340    0.0470 C   0  0  0  0  0  2  0  0  0  0  0  0
   10.6300   -1.6090   -1.6040 C   0  0  0  0  0  1  0  0  0  0  0  0
   10.7750    0.6810   -1.7930 S   0  0  0  0  0 15  0  0  0  0  0  0
   10.1770    0.9440    0.4560 C   0  0  0  0  0  2  0  0  0  0  0  0
   10.2310    2.3050    0.9810 C   0  0  0  0  0  0  0  0  0  0  0  0
   10.1630    3.3240    0.1160 N   0  0  0  0  0  0  0  0  0  0  0  0
   10.2280    4.5270    0.6980 C   0  0  0  0  0  0  0  0  0  0  0  0
   10.3560    4.7530    2.0530 C   0  0  0  0  0  0  0  0  0  0  0  0
   10.4160    3.6300    2.8630 C   0  0  0  0  0  0  0  0  0  0  0  0
   10.3370    2.3820    2.3180 N   0  0  0  0  0  0  0  0  0  0  0  0
   10.5820    3.8090    4.3670 C   0  0  0  0  0  0  0  0  0  0  0  0
   11.3170    2.9310    4.9410 O   0  0  0  0  0  1  0  0  0  0  0  0
    9.9940    4.7780    4.9330 O   0  0  0  0  0  0  0  0  0  0  0  0
   10.1570    5.6080   -0.1490 O   0  0  0  0  0  0  0  0  0  0  0  0
   10.2340    6.3660    0.4650 H   0  0  0  0  0  0  0  0  0  0  0  0
   10.4180    6.0450    2.5040 O   0  0  0  0  0  0  0  0  0  0  0  0
   10.5120    5.9690    3.4990 H   0  0  0  0  0  0  0  0  0  0  0  0
    8.5200   -1.8300    4.2760 O   0  0  0  0  0  0  0  0  0  0  0  0
    8.8230   -1.7620    3.0900 C   0  0  0  0  0  0  0  0  0  0  0  0
    9.6060   -0.7490    2.5960 N   0  0  0  0  0  4  0  0  0  0  0  0
    9.5130    0.1150    3.1340 H   0  0  0  0  0  0  0  0  0  0  0  0
    8.2240   -2.5850    2.1820 O   0  0  0  0  0  0  0  0  0  0  0  0
    8.1780   -3.9890    2.4550 C   0  0  0  0  0  2  0  0  0  0  0  0
    6.8490   -4.6390    1.9200 C   0  0  2  0  0  3  0  0  0  0  0  0
    5.5180   -4.8470    2.7670 C   0  0  0  0  0  2  0  0  0  0  0  0
    4.4020   -3.2620    4.3830 Cl  0  0  0  0  0 15  0  0  0  0  0  0
    5.1430   -6.3090    2.4690 C   0  0  0  0  0  2  0  0  0  0  0  0
    5.5550   -7.0930    1.3760 C   0  0  0  0  0  3  0  0  0  0  0  0
    6.4350   -6.5850    0.4520 C   0  0  0  0  0  3  0  0  0  0  0  0
    7.0970   -5.3990    0.7260 C   0  0  1  0  0  3  0  0  0  0  0  0
    8.2420   -4.9050   -0.4890 Cl  0  0  0  0  0  0  0  0  0  0  0  0
  1 21  2  0  0  0  0
  2  1  1  0  0  0  0
  3  2  1  0  0  0  0
  5  6  1  0  0  0  0
  5  1  1  0  0  0  0
  6 11  2  0  0  0  0
  7  8  2  0  0  0  0
  7  6  1  0  0  0  0
  8  9  1  0  0  0  0
  9 17  1  0  0  0  0
  9 10  2  0  0  0  0
 10 12  1  0  0  0  0
 11 10  1  0  0  0  0
 12 14  2  0  0  0  0
 12 13  1  0  0  0  0
 15 16  1  0  0  0  0
 15  8  1  0  0  0  0
 17 18  1  0  0  0  0
 20 19  2  0  0  0  0
 21 20  1  0  0  0  0
 21 22  1  0  0  0  0
 23 24  1  0  0  0  0
 23 20  1  0  0  0  0
 25 24  1  1  0  0  0
 25 26  1  0  0  0  0
 28 26  1  0  0  0  0
 29 28  1  0  0  0  0
 30 31  1  0  0  0  0
 30 29  2  0  0  0  0
 31 32  1  6  0  0  0
 31 25  1  0  0  0  0
M  END
>  <minimizedAffinity>
-6.60919094

$$$$
