
 OpenBabel09122222393D

 32 31  0  0  1  0  0  0  0  0999 V2000
    9.1780   -2.9140    2.0430 C   0  0  0  0  0  0  0  0  0  0  0  0
   10.3410   -2.6960    0.4740 C   0  0  0  0  0  2  0  0  0  0  0  0
    9.9870   -3.8550   -0.7980 C   0  0  0  0  0  1  0  0  0  0  0  0
    8.0850   -5.0830   -0.3750 S   0  0  0  0  0 15  0  0  0  0  0  0
    7.8920   -4.1220    1.7520 C   0  0  0  0  0  2  0  0  0  0  0  0
    6.6890   -4.4630    2.5050 C   0  0  0  0  0  0  0  0  0  0  0  0
    6.3100   -3.6530    3.5000 N   0  0  0  0  0  0  0  0  0  0  0  0
    5.2010   -4.0580    4.1300 C   0  0  0  0  0  0  0  0  0  0  0  0
    4.4810   -5.1960    3.8260 C   0  0  0  0  0  0  0  0  0  0  0  0
    4.9570   -5.9650    2.7780 C   0  0  0  0  0  0  0  0  0  0  0  0
    6.0740   -5.5850    2.0940 N   0  0  0  0  0  0  0  0  0  0  0  0
    4.2230   -7.2480    2.4070 C   0  0  0  0  0  0  0  0  0  0  0  0
    4.1250   -7.4760    1.1500 O   0  0  0  0  0  0  0  0  0  0  0  0
    3.7630   -7.9770    3.3370 O   0  0  0  0  0  1  0  0  0  0  0  0
    4.7660   -3.2550    5.1570 O   0  0  0  0  0  0  0  0  0  0  0  0
    3.9730   -3.7290    5.4790 H   0  0  0  0  0  0  0  0  0  0  0  0
    3.3660   -5.4880    4.5670 O   0  0  0  0  0  0  0  0  0  0  0  0
    3.0130   -6.3420    4.1790 H   0  0  0  0  0  0  0  0  0  0  0  0
    9.5230   -0.2330    4.3370 O   0  0  0  0  0  0  0  0  0  0  0  0
    9.4260   -0.8380    3.2750 C   0  0  0  0  0  0  0  0  0  0  0  0
    9.2750   -2.2010    3.2250 N   0  0  0  0  0  4  0  0  0  0  0  0
    9.7010   -2.6710    4.0260 H   0  0  0  0  0  0  0  0  0  0  0  0
    9.6680   -0.1950    2.0960 O   0  0  0  0  0  0  0  0  0  0  0  0
    9.1250    1.1150    1.9060 C   0  0  0  0  0  2  0  0  0  0  0  0
   10.2580    2.2020    1.7990 C   0  0  2  0  0  3  0  0  0  0  0  0
   10.6770    3.2130    2.9540 C   0  0  0  0  0  2  0  0  0  0  0  0
   10.9700    2.7710    5.4220 Cl  0  0  0  0  0 15  0  0  0  0  0  0
   10.7310    4.5670    2.2260 C   0  0  0  0  0  2  0  0  0  0  0  0
   10.8680    4.7910    0.8440 C   0  0  0  0  0  3  0  0  0  0  0  0
   10.9150    3.7310   -0.0290 C   0  0  0  0  0  3  0  0  0  0  0  0
   10.5860    2.4630    0.4260 C   0  0  1  0  0  3  0  0  0  0  0  0
   10.6070    1.2220   -0.7960 Cl  0  0  0  0  0  0  0  0  0  0  0  0
  1 21  2  0  0  0  0
  2  1  1  0  0  0  0
  3  2  1  0  0  0  0
  5  1  1  0  0  0  0
  5  6  1  0  0  0  0
  6  7  1  0  0  0  0
  7  8  2  0  0  0  0
  8 15  1  0  0  0  0
  9  8  1  0  0  0  0
  9 17  1  0  0  0  0
 10  9  2  0  0  0  0
 11  6  2  0  0  0  0
 11 10  1  0  0  0  0
 12 10  1  0  0  0  0
 12 14  1  0  0  0  0
 13 12  2  0  0  0  0
 15 16  1  0  0  0  0
 18 17  1  0  0  0  0
 20 19  2  0  0  0  0
 21 20  1  0  0  0  0
 21 22  1  0  0  0  0
 23 20  1  0  0  0  0
 24 23  1  0  0  0  0
 25 24  1  6  0  0  0
 25 26  1  0  0  0  0
 28 26  1  0  0  0  0
 29 28  1  0  0  0  0
 30 31  1  0  0  0  0
 30 29  2  0  0  0  0
 31 32  1  1  0  0  0
 31 25  1  0  0  0  0
M  END
>  <minimizedAffinity>
-7.44931507

$$$$
