
 OpenBabel09122222393D

 32 31  0  0  1  0  0  0  0  0999 V2000
    7.8610   -4.4190    1.6660 C   0  0  0  0  0  0  0  0  0  0  0  0
    8.6080   -4.2070   -0.1400 C   0  0  0  0  0  2  0  0  0  0  0  0
    7.7720   -5.1840   -1.3380 C   0  0  0  0  0  1  0  0  0  0  0  0
    5.8780   -6.1880   -0.4980 S   0  0  0  0  0 15  0  0  0  0  0  0
    6.3760   -5.4170    1.6560 C   0  0  0  0  0  2  0  0  0  0  0  0
    5.3660   -5.6680    2.6790 C   0  0  0  0  0  0  0  0  0  0  0  0
    5.2270   -6.9160    3.1430 N   0  0  0  0  0  0  0  0  0  0  0  0
    4.2700   -7.0400    4.0700 C   0  0  0  0  0  0  0  0  0  0  0  0
    3.4730   -6.0140    4.5370 C   0  0  0  0  0  0  0  0  0  0  0  0
    3.6990   -4.7610    3.9940 C   0  0  0  0  0  0  0  0  0  0  0  0
    4.6750   -4.5800    3.0570 N   0  0  0  0  0  0  0  0  0  0  0  0
    2.8360   -3.5900    4.4480 C   0  0  0  0  0  0  0  0  0  0  0  0
    3.4810   -2.5270    4.7590 O   0  0  0  0  0  1  0  0  0  0  0  0
    1.5790   -3.7430    4.4950 O   0  0  0  0  0  0  0  0  0  0  0  0
    4.0910   -8.3020    4.5830 O   0  0  0  0  0  0  0  0  0  0  0  0
    3.3570   -8.1740    5.2160 H   0  0  0  0  0  0  0  0  0  0  0  0
    2.5260   -6.2960    5.4870 O   0  0  0  0  0  0  0  0  0  0  0  0
    2.0740   -5.4200    5.6690 H   0  0  0  0  0  0  0  0  0  0  0  0
    9.6800   -2.3050    3.8530 O   0  0  0  0  0  0  0  0  0  0  0  0
    9.2430   -2.7900    2.8160 C   0  0  0  0  0  0  0  0  0  0  0  0
    8.3610   -3.8410    2.8190 N   0  0  0  0  0  4  0  0  0  0  0  0
    8.4700   -4.4410    3.6390 H   0  0  0  0  0  0  0  0  0  0  0  0
    9.7770   -2.4290    1.6140 O   0  0  0  0  0  0  0  0  0  0  0  0
    9.2040   -1.3190    0.9140 C   0  0  0  0  0  2  0  0  0  0  0  0
   10.2980   -0.4970    0.1380 C   0  0  2  0  0  3  0  0  0  0  0  0
   10.4760    1.0830    0.1940 C   0  0  0  0  0  2  0  0  0  0  0  0
   10.3570    2.6240    2.1900 Cl  0  0  0  0  0 15  0  0  0  0  0  0
   10.6030    1.4700   -1.2890 C   0  0  0  0  0  2  0  0  0  0  0  0
   10.9680    0.6370   -2.3630 C   0  0  0  0  0  3  0  0  0  0  0  0
   11.2020   -0.7000   -2.1540 C   0  0  0  0  0  3  0  0  0  0  0  0
   10.8470   -1.2700   -0.9410 C   0  0  1  0  0  3  0  0  0  0  0  0
   11.1230   -2.9860   -0.8330 Cl  0  0  0  0  0  0  0  0  0  0  0  0
  1 21  2  0  0  0  0
  2  1  1  0  0  0  0
  3  2  1  0  0  0  0
  5  1  1  0  0  0  0
  5  6  1  0  0  0  0
  6 11  2  0  0  0  0
  6  7  1  0  0  0  0
  7  8  2  0  0  0  0
  8  9  1  0  0  0  0
  8 15  1  0  0  0  0
  9 17  1  0  0  0  0
 10 12  1  0  0  0  0
 10  9  2  0  0  0  0
 11 10  1  0  0  0  0
 12 14  2  0  0  0  0
 12 13  1  0  0  0  0
 15 16  1  0  0  0  0
 17 18  1  0  0  0  0
 20 21  1  0  0  0  0
 20 19  2  0  0  0  0
 21 22  1  0  0  0  0
 23 20  1  0  0  0  0
 24 23  1  0  0  0  0
 25 26  1  0  0  0  0
 25 24  1  6  0  0  0
 28 26  1  0  0  0  0
 29 30  2  0  0  0  0
 29 28  1  0  0  0  0
 30 31  1  0  0  0  0
 31 32  1  1  0  0  0
 31 25  1  0  0  0  0
M  END
>  <minimizedAffinity>
-6.76432228

$$$$
