
 OpenBabel09122222393D

 32 31  0  0  1  0  0  0  0  0999 V2000
    8.1700   -3.1740    2.2420 C   0  0  0  0  0  0  0  0  0  0  0  0
    8.3420   -4.7820    1.1240 C   0  0  0  0  0  2  0  0  0  0  0  0
    9.1620   -4.4650   -0.3970 C   0  0  0  0  0  1  0  0  0  0  0  0
   10.0480   -2.3420   -0.5010 S   0  0  0  0  0 15  0  0  0  0  0  0
    9.0540   -1.7840    1.5440 C   0  0  0  0  0  2  0  0  0  0  0  0
    9.4010   -0.4770    2.0930 C   0  0  0  0  0  0  0  0  0  0  0  0
    9.5000   -0.3510    3.4220 N   0  0  0  0  0  0  0  0  0  0  0  0
    9.8150    0.8860    3.8220 C   0  0  0  0  0  0  0  0  0  0  0  0
   10.0250    1.9650    2.9870 C   0  0  0  0  0  0  0  0  0  0  0  0
    9.9010    1.7280    1.6290 C   0  0  0  0  0  0  0  0  0  0  0  0
    9.5970    0.4790    1.1710 N   0  0  0  0  0  0  0  0  0  0  0  0
   10.0960    2.8830    0.6540 C   0  0  0  0  0  0  0  0  0  0  0  0
   10.9750    2.6850   -0.2570 O   0  0  0  0  0  0  0  0  0  0  0  0
    9.4040    3.9340    0.8090 O   0  0  0  0  0  1  0  0  0  0  0  0
    9.9350    1.0670    5.1790 O   0  0  0  0  0  0  0  0  0  0  0  0
   10.1500    2.0180    5.2500 H   0  0  0  0  0  0  0  0  0  0  0  0
   10.3350    3.1790    3.5440 O   0  0  0  0  0  0  0  0  0  0  0  0
   10.4380    3.8020    2.7660 H   0  0  0  0  0  0  0  0  0  0  0  0
    5.6750   -3.5250    4.7350 O   0  0  0  0  0  0  0  0  0  0  0  0
    6.2490   -3.6170    3.6550 C   0  0  0  0  0  0  0  0  0  0  0  0
    7.5040   -3.1000    3.4520 N   0  0  0  0  0  4  0  0  0  0  0  0
    7.6950   -2.2930    4.0480 H   0  0  0  0  0  0  0  0  0  0  0  0
    5.5730   -4.0610    2.5570 O   0  0  0  0  0  0  0  0  0  0  0  0
    4.3390   -4.7600    2.7470 C   0  0  0  0  0  2  0  0  0  0  0  0
    4.4740   -6.2840    2.3780 C   0  0  2  0  0  3  0  0  0  0  0  0
    4.5120   -7.4850    3.4210 C   0  0  0  0  0  2  0  0  0  0  0  0
    3.1020   -7.8400    5.4850 Cl  0  0  0  0  0 15  0  0  0  0  0  0
    5.7140   -8.3190    2.9460 C   0  0  0  0  0  2  0  0  0  0  0  0
    6.3070   -8.3160    1.6700 C   0  0  0  0  0  3  0  0  0  0  0  0
    5.8520   -7.4610    0.6960 C   0  0  0  0  0  3  0  0  0  0  0  0
    4.9780   -6.4430    1.0430 C   0  0  1  0  0  3  0  0  0  0  0  0
    4.5390   -5.3820   -0.2670 Cl  0  0  0  0  0  0  0  0  0  0  0  0
  1 21  2  0  0  0  0
  2  1  1  0  0  0  0
  3  2  1  0  0  0  0
  5  6  1  0  0  0  0
  5  1  1  0  0  0  0
  6  7  1  0  0  0  0
  7  8  2  0  0  0  0
  8 15  1  0  0  0  0
  9 17  1  0  0  0  0
  9  8  1  0  0  0  0
 10  9  2  0  0  0  0
 11 10  1  0  0  0  0
 11  6  2  0  0  0  0
 12 14  1  0  0  0  0
 12 10  1  0  0  0  0
 13 12  2  0  0  0  0
 15 16  1  0  0  0  0
 18 17  1  0  0  0  0
 20 19  2  0  0  0  0
 21 20  1  0  0  0  0
 21 22  1  0  0  0  0
 23 24  1  0  0  0  0
 23 20  1  0  0  0  0
 25 24  1  1  0  0  0
 25 26  1  0  0  0  0
 28 26  1  0  0  0  0
 29 28  1  0  0  0  0
 30 31  1  0  0  0  0
 30 29  2  0  0  0  0
 31 32  1  6  0  0  0
 31 25  1  0  0  0  0
M  END
>  <minimizedAffinity>
-7.83239555

$$$$
