
 OpenBabel09122222393D

 32 31  0  0  1  0  0  0  0  0999 V2000
    8.5590   -3.2910    2.6630 C   0  0  0  0  0  0  0  0  0  0  0  0
    9.4730   -2.2110    4.0270 C   0  0  0  0  0  2  0  0  0  0  0  0
    8.5170   -2.0130    5.4880 C   0  0  0  0  0  1  0  0  0  0  0  0
    6.6160   -3.3120    5.4870 S   0  0  0  0  0 15  0  0  0  0  0  0
    7.0330   -3.9890    3.2840 C   0  0  0  0  0  2  0  0  0  0  0  0
    6.1390   -5.0090    2.7440 C   0  0  0  0  0  0  0  0  0  0  0  0
    5.2330   -5.5580    3.5620 N   0  0  0  0  0  0  0  0  0  0  0  0
    4.4700   -6.4860    2.9730 C   0  0  0  0  0  0  0  0  0  0  0  0
    4.5680   -6.8790    1.6530 C   0  0  0  0  0  0  0  0  0  0  0  0
    5.5370   -6.2470    0.8910 C   0  0  0  0  0  0  0  0  0  0  0  0
    6.3290   -5.2830    1.4430 N   0  0  0  0  0  0  0  0  0  0  0  0
    5.7140   -6.6530   -0.5670 C   0  0  0  0  0  0  0  0  0  0  0  0
    6.3050   -5.7880   -1.3040 O   0  0  0  0  0  0  0  0  0  0  0  0
    5.2710   -7.7790   -0.9430 O   0  0  0  0  0  1  0  0  0  0  0  0
    3.5190   -7.0760    3.7690 O   0  0  0  0  0  0  0  0  0  0  0  0
    3.0940   -7.7130    3.1610 H   0  0  0  0  0  0  0  0  0  0  0  0
    3.7200   -7.8500    1.1900 O   0  0  0  0  0  0  0  0  0  0  0  0
    3.9690   -7.9740    0.2270 H   0  0  0  0  0  0  0  0  0  0  0  0
   10.2440   -2.9390   -0.4350 O   0  0  0  0  0  0  0  0  0  0  0  0
    9.8520   -2.6920    0.7000 C   0  0  0  0  0  0  0  0  0  0  0  0
    9.0290   -3.5480    1.3880 N   0  0  0  0  0  4  0  0  0  0  0  0
    8.4350   -4.1020    0.7680 H   0  0  0  0  0  0  0  0  0  0  0  0
   10.0600   -1.4580    1.2430 O   0  0  0  0  0  0  0  0  0  0  0  0
    9.3960   -0.3320    0.6600 C   0  0  0  0  0  2  0  0  0  0  0  0
   10.2210    0.9930    0.8600 C   0  0  2  0  0  3  0  0  0  0  0  0
   10.2190    1.8910    2.1740 C   0  0  0  0  0  2  0  0  0  0  0  0
   10.3000    1.1660    4.5910 Cl  0  0  0  0  0 15  0  0  0  0  0  0
   10.0190    3.3130    1.6220 C   0  0  0  0  0  2  0  0  0  0  0  0
   10.2690    3.7660    0.3140 C   0  0  0  0  0  3  0  0  0  0  0  0
   10.6940    2.8890   -0.6550 C   0  0  0  0  0  3  0  0  0  0  0  0
   10.6430    1.5270   -0.4050 C   0  0  1  0  0  3  0  0  0  0  0  0
   11.1330    0.5220   -1.7400 Cl  0  0  0  0  0  0  0  0  0  0  0  0
  1  5  1  0  0  0  0
  1  2  1  0  0  0  0
  2  3  1  0  0  0  0
  6  5  1  0  0  0  0
  6  7  1  0  0  0  0
  8  7  2  0  0  0  0
  8 15  1  0  0  0  0
  9  8  1  0  0  0  0
 10 11  1  0  0  0  0
 10  9  2  0  0  0  0
 11  6  2  0  0  0  0
 12 10  1  0  0  0  0
 13 12  2  0  0  0  0
 14 12  1  0  0  0  0
 16 15  1  0  0  0  0
 17  9  1  0  0  0  0
 18 17  1  0  0  0  0
 19 20  2  0  0  0  0
 20 23  1  0  0  0  0
 20 21  1  0  0  0  0
 21  1  2  0  0  0  0
 22 21  1  0  0  0  0
 24 23  1  0  0  0  0
 25 24  1  6  0  0  0
 25 26  1  0  0  0  0
 28 26  1  0  0  0  0
 29 28  1  0  0  0  0
 30 31  1  0  0  0  0
 30 29  2  0  0  0  0
 31 32  1  1  0  0  0
 31 25  1  0  0  0  0
M  END
>  <minimizedAffinity>
-6.97352695

$$$$
