
 OpenBabel09122222393D

 32 31  0  0  1  0  0  0  0  0999 V2000
   10.9730    3.8300    2.3510 C   0  0  0  0  0  0  0  0  0  0  0  0
   11.3160    2.6290    3.8680 C   0  0  0  0  0  2  0  0  0  0  0  0
   11.3190    3.4700    5.4110 C   0  0  0  0  0  1  0  0  0  0  0  0
   10.6330    5.6600    5.2280 S   0  0  0  0  0 15  0  0  0  0  0  0
   10.5540    5.4810    2.8950 C   0  0  0  0  0  2  0  0  0  0  0  0
   10.0160    6.6340    2.1790 C   0  0  0  0  0  0  0  0  0  0  0  0
    9.4390    7.6110    2.8890 N   0  0  0  0  0  0  0  0  0  0  0  0
    8.9730    8.6170    2.1390 C   0  0  0  0  0  0  0  0  0  0  0  0
    9.0500    8.6880    0.7630 C   0  0  0  0  0  0  0  0  0  0  0  0
    9.6690    7.6260    0.1240 C   0  0  0  0  0  0  0  0  0  0  0  0
   10.1750    6.5860    0.8460 N   0  0  0  0  0  0  0  0  0  0  0  0
    9.7650    7.6310   -1.3970 C   0  0  0  0  0  0  0  0  0  0  0  0
    8.6890    7.3060   -2.0120 O   0  0  0  0  0  0  0  0  0  0  0  0
   10.8710    7.9380   -1.9360 O   0  0  0  0  0  1  0  0  0  0  0  0
    8.3750    9.6480    2.8220 O   0  0  0  0  0  0  0  0  0  0  0  0
    8.1030   10.2520    2.1020 H   0  0  0  0  0  0  0  0  0  0  0  0
    8.5190    9.7800    0.1280 O   0  0  0  0  0  0  0  0  0  0  0  0
    8.6840    9.6190   -0.8470 H   0  0  0  0  0  0  0  0  0  0  0  0
   10.5000    1.9940   -0.6440 O   0  0  0  0  0  0  0  0  0  0  0  0
   10.4600    2.2940    0.5440 C   0  0  0  0  0  0  0  0  0  0  0  0
   10.9900    3.4690    1.0160 N   0  0  0  0  0  4  0  0  0  0  0  0
   11.7710    3.8010    0.4470 H   0  0  0  0  0  0  0  0  0  0  0  0
   10.0610    1.3750    1.4700 O   0  0  0  0  0  0  0  0  0  0  0  0
    9.0730    0.4100    1.0960 C   0  0  0  0  0  2  0  0  0  0  0  0
    9.6840   -1.0370    1.0000 C   0  0  2  0  0  3  0  0  0  0  0  0
   10.1020   -1.7740   -0.3470 C   0  0  0  0  0  2  0  0  0  0  0  0
   11.3160   -0.8430   -2.3550 Cl  0  0  0  0  0 15  0  0  0  0  0  0
    9.4650   -3.1660   -0.1920 C   0  0  0  0  0  2  0  0  0  0  0  0
    9.0590   -3.7940    1.0000 C   0  0  0  0  0  3  0  0  0  0  0  0
    9.1630   -3.1340    2.2010 C   0  0  0  0  0  3  0  0  0  0  0  0
    9.4380   -1.7760    2.2070 C   0  0  1  0  0  3  0  0  0  0  0  0
    9.4640   -1.0440    3.7870 Cl  0  0  0  0  0  0  0  0  0  0  0  0
  1  5  1  0  0  0  0
  1  2  1  0  0  0  0
  2  3  1  0  0  0  0
  6  7  1  0  0  0  0
  6  5  1  0  0  0  0
  8 15  1  0  0  0  0
  8  7  2  0  0  0  0
  9  8  1  0  0  0  0
 10  9  2  0  0  0  0
 10 11  1  0  0  0  0
 11  6  2  0  0  0  0
 12 10  1  0  0  0  0
 13 12  2  0  0  0  0
 14 12  1  0  0  0  0
 16 15  1  0  0  0  0
 17  9  1  0  0  0  0
 18 17  1  0  0  0  0
 19 20  2  0  0  0  0
 20 21  1  0  0  0  0
 20 23  1  0  0  0  0
 21  1  2  0  0  0  0
 22 21  1  0  0  0  0
 24 23  1  0  0  0  0
 25 24  1  6  0  0  0
 25 31  1  0  0  0  0
 26 28  1  0  0  0  0
 26 25  1  0  0  0  0
 28 29  1  0  0  0  0
 29 30  2  0  0  0  0
 30 31  1  0  0  0  0
 31 32  1  1  0  0  0
M  END
>  <minimizedAffinity>
-7.938797

$$$$
