
 OpenBabel09122222393D

 32 31  0  0  1  0  0  0  0  0999 V2000
    8.7200   -3.2390    2.5350 C   0  0  0  0  0  0  0  0  0  0  0  0
    8.1250   -3.4290    4.3990 C   0  0  0  0  0  2  0  0  0  0  0  0
    8.6230   -2.0820    5.4110 C   0  0  0  0  0  1  0  0  0  0  0  0
    9.5620   -0.3630    4.2000 S   0  0  0  0  0 15  0  0  0  0  0  0
    9.4760   -1.6440    2.2410 C   0  0  0  0  0  2  0  0  0  0  0  0
    9.8620   -0.9630    1.0090 C   0  0  0  0  0  0  0  0  0  0  0  0
   10.1690   -1.7070   -0.0600 N   0  0  0  0  0  0  0  0  0  0  0  0
   10.5160   -0.9870   -1.1330 C   0  0  0  0  0  0  0  0  0  0  0  0
   10.5720    0.3910   -1.1860 C   0  0  0  0  0  0  0  0  0  0  0  0
   10.2330    1.0670   -0.0250 C   0  0  0  0  0  0  0  0  0  0  0  0
    9.8570    0.3780    1.0900 N   0  0  0  0  0  0  0  0  0  0  0  0
   10.2990    2.5900   -0.0080 C   0  0  0  0  0  0  0  0  0  0  0  0
   11.3170    3.0970   -0.5980 O   0  0  0  0  0  0  0  0  0  0  0  0
    9.3760    3.2320    0.5770 O   0  0  0  0  0  1  0  0  0  0  0  0
   10.8340   -1.7050   -2.2610 O   0  0  0  0  0  0  0  0  0  0  0  0
   11.0640   -1.0040   -2.9030 H   0  0  0  0  0  0  0  0  0  0  0  0
   10.9540    0.9910   -2.3570 O   0  0  0  0  0  0  0  0  0  0  0  0
   10.9260    1.9750   -2.1650 H   0  0  0  0  0  0  0  0  0  0  0  0
    7.3130   -5.8060    0.5370 O   0  0  0  0  0  0  0  0  0  0  0  0
    7.4350   -4.9740    1.4300 C   0  0  0  0  0  0  0  0  0  0  0  0
    8.5460   -4.1760    1.5330 N   0  0  0  0  0  4  0  0  0  0  0  0
    9.3840   -4.6190    1.1510 H   0  0  0  0  0  0  0  0  0  0  0  0
    6.5560   -4.9540    2.4720 O   0  0  0  0  0  0  0  0  0  0  0  0
    5.2160   -4.5130    2.2300 C   0  0  0  0  0  2  0  0  0  0  0  0
    4.1630   -5.4460    2.9350 C   0  0  2  0  0  3  0  0  0  0  0  0
    3.5050   -5.1820    4.3600 C   0  0  0  0  0  2  0  0  0  0  0  0
    2.6280   -3.0210    5.3270 Cl  0  0  0  0  0 15  0  0  0  0  0  0
    3.6540   -6.5390    5.0680 C   0  0  0  0  0  2  0  0  0  0  0  0
    3.8510   -7.7980    4.4720 C   0  0  0  0  0  3  0  0  0  0  0  0
    3.9890   -7.9060    3.1090 C   0  0  0  0  0  3  0  0  0  0  0  0
    4.1750   -6.7590    2.3530 C   0  0  1  0  0  3  0  0  0  0  0  0
    4.4160   -7.0380    0.6510 Cl  0  0  0  0  0  0  0  0  0  0  0  0
  1  2  1  0  0  0  0
  2  3  1  0  0  0  0
  5  1  1  0  0  0  0
  6 11  2  0  0  0  0
  6  5  1  0  0  0  0
  7  6  1  0  0  0  0
  8  7  2  0  0  0  0
  9  8  1  0  0  0  0
  9 10  2  0  0  0  0
 10 12  1  0  0  0  0
 10 11  1  0  0  0  0
 12 14  1  0  0  0  0
 13 12  2  0  0  0  0
 15  8  1  0  0  0  0
 16 15  1  0  0  0  0
 17 18  1  0  0  0  0
 17  9  1  0  0  0  0
 19 20  2  0  0  0  0
 20 21  1  0  0  0  0
 20 23  1  0  0  0  0
 21  1  2  0  0  0  0
 22 21  1  0  0  0  0
 24 23  1  0  0  0  0
 25 24  1  1  0  0  0
 25 26  1  0  0  0  0
 26 28  1  0  0  0  0
 29 28  1  0  0  0  0
 30 29  2  0  0  0  0
 31 32  1  6  0  0  0
 31 25  1  0  0  0  0
 31 30  1  0  0  0  0
M  END
>  <minimizedAffinity>
-6.68875599

$$$$
