
 OpenBabel09122222393D

 32 31  0  0  1  0  0  0  0  0999 V2000
    9.4210   -1.8110    1.5880 C   0  0  0  0  0  0  0  0  0  0  0  0
    9.8360   -3.0900    0.1540 C   0  0  0  0  0  2  0  0  0  0  0  0
   10.3300   -2.3020   -1.3360 C   0  0  0  0  0  1  0  0  0  0  0  0
   10.6280   -0.0330   -1.0820 S   0  0  0  0  0 15  0  0  0  0  0  0
    9.8190   -0.1330    1.1130 C   0  0  0  0  0  2  0  0  0  0  0  0
    9.8990    1.1040    1.8850 C   0  0  0  0  0  0  0  0  0  0  0  0
    9.8400    1.0260    3.2200 N   0  0  0  0  0  0  0  0  0  0  0  0
    9.9140    2.2140    3.8310 C   0  0  0  0  0  0  0  0  0  0  0  0
   10.0350    3.4320    3.1940 C   0  0  0  0  0  0  0  0  0  0  0  0
   10.0890    3.4030    1.8110 C   0  0  0  0  0  0  0  0  0  0  0  0
   10.0340    2.2150    1.1430 N   0  0  0  0  0  0  0  0  0  0  0  0
   10.1980    4.7160    1.0450 C   0  0  0  0  0  0  0  0  0  0  0  0
    9.3230    4.8840    0.1240 O   0  0  0  0  0  0  0  0  0  0  0  0
   11.1220    5.5260    1.3540 O   0  0  0  0  0  1  0  0  0  0  0  0
    9.8640    2.1870    5.2040 O   0  0  0  0  0  0  0  0  0  0  0  0
    9.9190    3.1350    5.4390 H   0  0  0  0  0  0  0  0  0  0  0  0
   10.0910    4.5710    3.9550 O   0  0  0  0  0  0  0  0  0  0  0  0
   10.1740    5.3200    3.2950 H   0  0  0  0  0  0  0  0  0  0  0  0
    7.5830   -3.3820    4.1790 O   0  0  0  0  0  0  0  0  0  0  0  0
    8.0100   -3.1260    3.0590 C   0  0  0  0  0  0  0  0  0  0  0  0
    8.9320   -2.1330    2.8400 N   0  0  0  0  0  4  0  0  0  0  0  0
    8.8680   -1.3820    3.5300 H   0  0  0  0  0  0  0  0  0  0  0  0
    7.4290   -3.6890    1.9600 O   0  0  0  0  0  0  0  0  0  0  0  0
    7.3990   -5.1160    1.8550 C   0  0  0  0  0  2  0  0  0  0  0  0
    6.0400   -5.6230    1.2450 C   0  0  2  0  0  3  0  0  0  0  0  0
    4.7750   -6.0990    2.0830 C   0  0  0  0  0  2  0  0  0  0  0  0
    3.7640   -5.0700    4.1550 Cl  0  0  0  0  0 15  0  0  0  0  0  0
    4.3900   -7.4260    1.4060 C   0  0  0  0  0  2  0  0  0  0  0  0
    4.7290   -7.8550    0.1100 C   0  0  0  0  0  3  0  0  0  0  0  0
    5.5380   -7.0810   -0.6870 C   0  0  0  0  0  3  0  0  0  0  0  0
    6.2090   -6.0040   -0.1290 C   0  0  1  0  0  3  0  0  0  0  0  0
    7.2610   -5.1540   -1.2260 Cl  0  0  0  0  0  0  0  0  0  0  0  0
  1 21  2  0  0  0  0
  2  1  1  0  0  0  0
  3  2  1  0  0  0  0
  5  1  1  0  0  0  0
  5  6  1  0  0  0  0
  6  7  1  0  0  0  0
  7  8  2  0  0  0  0
  8 15  1  0  0  0  0
  9  8  1  0  0  0  0
  9 17  1  0  0  0  0
 10  9  2  0  0  0  0
 11 10  1  0  0  0  0
 11  6  2  0  0  0  0
 12 14  1  0  0  0  0
 12 10  1  0  0  0  0
 13 12  2  0  0  0  0
 15 16  1  0  0  0  0
 18 17  1  0  0  0  0
 20 19  2  0  0  0  0
 21 20  1  0  0  0  0
 21 22  1  0  0  0  0
 23 20  1  0  0  0  0
 24 23  1  0  0  0  0
 25 24  1  1  0  0  0
 25 26  1  0  0  0  0
 28 26  1  0  0  0  0
 29 28  1  0  0  0  0
 30 31  1  0  0  0  0
 30 29  2  0  0  0  0
 31 32  1  6  0  0  0
 31 25  1  0  0  0  0
M  END
>  <minimizedAffinity>
-7.53710938

$$$$
