
 OpenBabel09122222393D

 50 56  0  0  1  0  0  0  0  0999 V2000
    3.9920   -3.0630    5.5920 C   0  0  0  0  0  0  0  0  0  0  0  0
    2.7280   -2.5030    5.8050 C   0  0  0  0  0  3  0  0  0  0  0  0
    2.5310   -1.5690    6.8280 C   0  0  0  0  0  3  0  0  0  0  0  0
    3.5810   -1.1950    7.6700 C   0  0  0  0  0  0  0  0  0  0  0  0
    4.8360   -1.7640    7.4780 C   0  0  0  0  0  3  0  0  0  0  0  0
    5.0290   -2.6920    6.4510 C   0  0  0  0  0  0  0  0  0  0  0  0
    6.2580   -3.2080    6.2970 F   0  0  0  0  0  0  0  0  0  0  0  0
    5.1430   -6.4240    0.7690 C   0  0  0  0  0  0  0  0  0  0  0  0
    4.5010   -7.4380    1.4980 C   0  0  0  0  0  3  0  0  0  0  0  0
    3.9910   -7.2250    2.7840 C   0  0  0  0  0  3  0  0  0  0  0  0
    4.1390   -5.9450    3.3380 C   0  0  0  0  0  0  0  0  0  0  0  0
    4.7650   -4.9150    2.6420 C   0  0  0  0  0  0  0  0  0  0  0  0
    5.2720   -5.1490    1.3540 C   0  0  0  0  0  3  0  0  0  0  0  0
    4.7930   -3.7680    3.3920 N   0  0  0  0  0  0  0  0  0  0  0  0
    4.1680   -4.0440    4.5210 C   0  0  0  0  0  0  0  0  0  0  0  0
    3.7940   -5.3810    4.5520 N   0  0  0  0  0  0  0  0  0  0  0  0
    3.2330   -6.0900    5.6990 C   0  0  0  0  0  3  0  0  0  0  0  0
    3.9330   -5.7420    7.0230 C   0  0  0  0  0  2  0  0  0  0  0  0
    3.3610   -6.5550    8.1830 C   0  0  0  0  0  2  0  0  0  0  0  0
    1.8450   -6.3990    8.2860 C   0  0  0  0  0  2  0  0  0  0  0  0
    1.1510   -6.7560    6.9750 C   0  0  0  0  0  2  0  0  0  0  0  0
    1.7050   -5.9470    5.8040 C   0  0  0  0  0  2  0  0  0  0  0  0
    5.3750   -7.8110   -1.1520 O   0  0  0  0  0  0  0  0  0  0  0  0
    5.6900   -6.7000   -0.6180 C   0  0  0  0  0  0  0  0  0  0  0  0
    6.4250   -5.8060   -1.1430 O   0  0  0  0  0  1  0  0  0  0  0  0
    3.2450   -0.2660    8.6110 O   0  0  0  0  0  0  0  0  0  0  0  0
    2.8250   -0.6860    9.9070 C   0  0  0  0  0  2  0  0  0  0  0  0
    3.8600   -0.4060   10.9800 C   0  0  0  0  0  0  0  0  0  0  0  0
    4.4550    0.8700   11.0360 C   0  0  0  0  0  3  0  0  0  0  0  0
    5.3980    1.1760   12.0240 C   0  0  0  0  0  0  0  0  0  0  0  0
    5.7990    0.2030   12.9360 C   0  0  0  0  0  3  0  0  0  0  0  0
    5.2170   -1.0640   12.8930 C   0  0  0  0  0  3  0  0  0  0  0  0
    4.2400   -1.3860   11.9290 C   0  0  0  0  0  0  0  0  0  0  0  0
    6.0470    2.5060   12.0690 C   0  0  0  0  0  0  0  0  0  0  0  0
    5.5150    3.3720   12.7590 O   0  0  0  0  0  0  0  0  0  0  0  0
    7.2150    2.7210   11.3390 N   0  0  0  0  0  0  0  0  0  0  0  0
    7.7000    1.8820   10.2430 C   0  0  0  0  0  2  0  0  0  0  0  0
    7.7250    2.6730    8.9360 C   0  0  0  0  0  2  0  0  0  0  0  0
    8.4730    3.9980    9.0770 C   0  0  1  0  0  3  0  0  0  0  0  0
    7.9940    4.8050   10.2860 C   0  0  0  0  0  2  0  0  0  0  0  0
    7.9560    3.9610   11.5550 C   0  0  0  0  0  2  0  0  0  0  0  0
    9.8790    3.7630    9.1420 O   0  0  0  0  0  0  0  0  0  0  0  0
   10.0980    3.3650   10.0010 H   0  0  0  0  0  0  0  0  0  0  0  0
    3.6590   -2.7350   11.9510 C   0  0  0  0  0  0  0  0  0  0  0  0
    2.4800   -2.9950   12.6690 C   0  0  0  0  0  3  0  0  0  0  0  0
    1.9230   -4.2760   12.6880 C   0  0  0  0  0  3  0  0  0  0  0  0
    2.5380   -5.3070   11.9820 C   0  0  0  0  0  0  0  0  0  0  0  0
    1.8550   -6.8850   12.0020 Cl  0  0  0  0  0  0  0  0  0  0  0  0
    3.7030   -5.0670   11.2570 C   0  0  0  0  0  3  0  0  0  0  0  0
    4.2600   -3.7860   11.2400 C   0  0  0  0  0  3  0  0  0  0  0  0
  1  2  2  0  0  0  0
  1  6  1  0  0  0  0
  2  3  1  0  0  0  0
  3  4  2  0  0  0  0
  4 26  1  0  0  0  0
  5  4  1  0  0  0  0
  6  5  2  0  0  0  0
  7  6  1  0  0  0  0
  8 13  2  0  0  0  0
  8  9  1  0  0  0  0
  9 10  2  0  0  0  0
 10 11  1  0  0  0  0
 11 16  1  0  0  0  0
 12 11  2  0  0  0  0
 12 14  1  0  0  0  0
 13 12  1  0  0  0  0
 14 15  2  0  0  0  0
 15 16  1  0  0  0  0
 15  1  1  0  0  0  0
 16 17  1  0  0  0  0
 17 22  1  0  0  0  0
 17 18  1  0  0  0  0
 18 19  1  0  0  0  0
 19 20  1  0  0  0  0
 21 20  1  0  0  0  0
 22 21  1  0  0  0  0
 23 24  2  0  0  0  0
 24  8  1  0  0  0  0
 25 24  1  0  0  0  0
 26 27  1  0  0  0  0
 27 28  1  0  0  0  0
 28 29  2  0  0  0  0
 28 33  1  0  0  0  0
 29 30  1  0  0  0  0
 30 34  1  0  0  0  0
 30 31  2  0  0  0  0
 32 31  1  0  0  0  0
 33 44  1  0  0  0  0
 33 32  2  0  0  0  0
 34 35  2  0  0  0  0
 36 41  1  0  0  0  0
 36 34  1  0  0  0  0
 37 36  1  0  0  0  0
 38 39  1  0  0  0  0
 38 37  1  0  0  0  0
 39 42  1  1  0  0  0
 39 40  1  0  0  0  0
 40 41  1  0  0  0  0
 42 43  1  0  0  0  0
 44 45  1  0  0  0  0
 45 46  2  0  0  0  0
 47 48  1  0  0  0  0
 47 46  1  0  0  0  0
 49 47  2  0  0  0  0
 50 49  1  0  0  0  0
 50 44  2  0  0  0  0
M  END
>  <minimizedAffinity>
-9.72190857

$$$$
