
 OpenBabel09122222393D

 50 56  0  0  1  0  0  0  0  0999 V2000
    9.3960   -1.7980    3.2920 C   0  0  0  0  0  0  0  0  0  0  0  0
   10.0620   -2.1860    4.4600 C   0  0  0  0  0  3  0  0  0  0  0  0
   10.6240   -1.2250    5.3070 C   0  0  0  0  0  3  0  0  0  0  0  0
   10.5540    0.1350    4.9960 C   0  0  0  0  0  0  0  0  0  0  0  0
    9.9120    0.5270    3.8250 C   0  0  0  0  0  3  0  0  0  0  0  0
    9.3480   -0.4360    2.9860 C   0  0  0  0  0  0  0  0  0  0  0  0
    8.7310   -0.0120    1.8720 F   0  0  0  0  0  0  0  0  0  0  0  0
    6.4180   -6.0750    0.3390 C   0  0  0  0  0  0  0  0  0  0  0  0
    7.4180   -5.9040   -0.6310 C   0  0  0  0  0  3  0  0  0  0  0  0
    8.4540   -4.9730   -0.4800 C   0  0  0  0  0  3  0  0  0  0  0  0
    8.4680   -4.2010    0.6900 C   0  0  0  0  0  0  0  0  0  0  0  0
    7.4950   -4.3480    1.6750 C   0  0  0  0  0  0  0  0  0  0  0  0
    6.4640   -5.2850    1.5050 C   0  0  0  0  0  3  0  0  0  0  0  0
    7.7200   -3.4810    2.7130 N   0  0  0  0  0  0  0  0  0  0  0  0
    8.8260   -2.8250    2.4200 C   0  0  0  0  0  0  0  0  0  0  0  0
    9.2920   -3.1980    1.1660 N   0  0  0  0  0  0  0  0  0  0  0  0
   10.3900   -2.5720    0.4350 C   0  0  0  0  0  3  0  0  0  0  0  0
   11.4570   -3.5770   -0.0270 C   0  0  0  0  0  2  0  0  0  0  0  0
   12.6180   -2.8720   -0.7250 C   0  0  0  0  0  2  0  0  0  0  0  0
   12.1330   -1.9930   -1.8760 C   0  0  0  0  0  2  0  0  0  0  0  0
   11.0820   -0.9870   -1.4140 C   0  0  0  0  0  2  0  0  0  0  0  0
    9.9090   -1.6760   -0.7200 C   0  0  0  0  0  2  0  0  0  0  0  0
    5.4130   -7.8610   -0.8720 O   0  0  0  0  0  0  0  0  0  0  0  0
    5.3090   -7.0880    0.1330 C   0  0  0  0  0  0  0  0  0  0  0  0
    4.3550   -7.0880    0.9740 O   0  0  0  0  0  1  0  0  0  0  0  0
   11.1310    0.9550    5.9210 O   0  0  0  0  0  0  0  0  0  0  0  0
   11.0320    2.3700    5.7750 C   0  0  0  0  0  2  0  0  0  0  0  0
   12.3850    3.0540    5.7430 C   0  0  0  0  0  0  0  0  0  0  0  0
   13.2620    2.8790    6.8320 C   0  0  0  0  0  3  0  0  0  0  0  0
   14.5290    3.4750    6.8320 C   0  0  0  0  0  0  0  0  0  0  0  0
   14.9200    4.2920    5.7750 C   0  0  0  0  0  3  0  0  0  0  0  0
   14.0620    4.4730    4.6900 C   0  0  0  0  0  3  0  0  0  0  0  0
   12.7950    3.8560    4.6500 C   0  0  0  0  0  0  0  0  0  0  0  0
   15.4420    3.3170    7.9870 C   0  0  0  0  0  0  0  0  0  0  0  0
   15.1300    3.8760    9.0360 O   0  0  0  0  0  0  0  0  0  0  0  0
   16.6010    2.5540    7.8430 N   0  0  0  0  0  0  0  0  0  0  0  0
   17.2100    2.1650    6.5710 C   0  0  0  0  0  2  0  0  0  0  0  0
   18.5980    2.7880    6.4320 C   0  0  0  0  0  2  0  0  0  0  0  0
   19.4800    2.5120    7.6490 C   0  0  1  0  0  3  0  0  0  0  0  0
   18.7720    2.8510    8.9630 C   0  0  0  0  0  2  0  0  0  0  0  0
   17.3790    2.2330    9.0360 C   0  0  0  0  0  2  0  0  0  0  0  0
   19.9170    1.1540    7.6390 O   0  0  0  0  0  0  0  0  0  0  0  0
   19.1680    0.5730    7.8510 H   0  0  0  0  0  0  0  0  0  0  0  0
   11.9490    4.0780    3.4700 C   0  0  0  0  0  0  0  0  0  0  0  0
   11.9340    3.1500    2.4160 C   0  0  0  0  0  3  0  0  0  0  0  0
   11.1270    3.3560    1.2940 C   0  0  0  0  0  3  0  0  0  0  0  0
   10.3220    4.4900    1.2210 C   0  0  0  0  0  0  0  0  0  0  0  0
    9.3270    4.7480   -0.1580 Cl  0  0  0  0  0  0  0  0  0  0  0  0
   10.3170    5.4180    2.2600 C   0  0  0  0  0  3  0  0  0  0  0  0
   11.1260    5.2120    3.3810 C   0  0  0  0  0  3  0  0  0  0  0  0
  1  2  1  0  0  0  0
  2  3  2  0  0  0  0
  4  3  1  0  0  0  0
  4 26  1  0  0  0  0
  5  4  2  0  0  0  0
  6  1  2  0  0  0  0
  6  5  1  0  0  0  0
  7  6  1  0  0  0  0
  8 13  1  0  0  0  0
  9 10  1  0  0  0  0
  9  8  2  0  0  0  0
 10 11  2  0  0  0  0
 11 16  1  0  0  0  0
 11 12  1  0  0  0  0
 12 14  1  0  0  0  0
 13 12  2  0  0  0  0
 15 14  2  0  0  0  0
 15  1  1  0  0  0  0
 16 15  1  0  0  0  0
 17 16  1  0  0  0  0
 18 17  1  0  0  0  0
 19 18  1  0  0  0  0
 20 21  1  0  0  0  0
 20 19  1  0  0  0  0
 21 22  1  0  0  0  0
 22 17  1  0  0  0  0
 23 24  2  0  0  0  0
 24  8  1  0  0  0  0
 24 25  1  0  0  0  0
 27 26  1  0  0  0  0
 28 27  1  0  0  0  0
 28 29  1  0  0  0  0
 30 29  2  0  0  0  0
 30 34  1  0  0  0  0
 31 30  1  0  0  0  0
 32 31  2  0  0  0  0
 33 32  1  0  0  0  0
 33 28  2  0  0  0  0
 34 35  2  0  0  0  0
 36 34  1  0  0  0  0
 36 41  1  0  0  0  0
 37 36  1  0  0  0  0
 38 37  1  0  0  0  0
 38 39  1  0  0  0  0
 39 42  1  1  0  0  0
 39 40  1  0  0  0  0
 40 41  1  0  0  0  0
 42 43  1  0  0  0  0
 44 33  1  0  0  0  0
 45 44  2  0  0  0  0
 46 45  1  0  0  0  0
 47 46  2  0  0  0  0
 47 49  1  0  0  0  0
 48 47  1  0  0  0  0
 49 50  2  0  0  0  0
 50 44  1  0  0  0  0
M  END
>  <minimizedAffinity>
-9.89413929

$$$$
