
 OpenBabel09122222393D

 50 56  0  0  1  0  0  0  0  0999 V2000
    3.6950   -3.0500    5.5040 C   0  0  0  0  0  0  0  0  0  0  0  0
    4.7430   -2.6460    6.3370 C   0  0  0  0  0  3  0  0  0  0  0  0
    4.5290   -1.6790    7.3260 C   0  0  0  0  0  3  0  0  0  0  0  0
    3.2760   -1.0820    7.4860 C   0  0  0  0  0  0  0  0  0  0  0  0
    2.2340   -1.4630    6.6460 C   0  0  0  0  0  3  0  0  0  0  0  0
    2.4520   -2.4330    5.6650 C   0  0  0  0  0  0  0  0  0  0  0  0
    1.4160   -2.7750    4.8840 F   0  0  0  0  0  0  0  0  0  0  0  0
    5.1140   -6.5030    0.8190 C   0  0  0  0  0  0  0  0  0  0  0  0
    4.5480   -7.5330    1.5880 C   0  0  0  0  0  3  0  0  0  0  0  0
    4.0190   -7.3080    2.8650 C   0  0  0  0  0  3  0  0  0  0  0  0
    4.0680   -6.0010    3.3660 C   0  0  0  0  0  0  0  0  0  0  0  0
    4.6160   -4.9540    2.6300 C   0  0  0  0  0  0  0  0  0  0  0  0
    5.1420   -5.1990    1.3520 C   0  0  0  0  0  3  0  0  0  0  0  0
    4.5540   -3.7790    3.3340 N   0  0  0  0  0  0  0  0  0  0  0  0
    3.9480   -4.0560    4.4730 C   0  0  0  0  0  0  0  0  0  0  0  0
    3.6770   -5.4160    4.5570 N   0  0  0  0  0  0  0  0  0  0  0  0
    3.1690   -6.1200    5.7320 C   0  0  0  0  0  3  0  0  0  0  0  0
    3.8760   -5.7070    7.0330 C   0  0  0  0  0  2  0  0  0  0  0  0
    3.3610   -6.5150    8.2240 C   0  0  0  0  0  2  0  0  0  0  0  0
    1.8420   -6.4230    8.3510 C   0  0  0  0  0  2  0  0  0  0  0  0
    1.1400   -6.8440    7.0630 C   0  0  0  0  0  2  0  0  0  0  0  0
    1.6370   -6.0410    5.8620 C   0  0  0  0  0  2  0  0  0  0  0  0
    6.4440   -5.9050   -1.0620 O   0  0  0  0  0  1  0  0  0  0  0  0
    5.6840   -6.7910   -0.5560 C   0  0  0  0  0  0  0  0  0  0  0  0
    5.3570   -7.8900   -1.1050 O   0  0  0  0  0  0  0  0  0  0  0  0
    3.2130   -0.1690    8.4980 O   0  0  0  0  0  0  0  0  0  0  0  0
    3.0320   -0.6100    9.8410 C   0  0  0  0  0  2  0  0  0  0  0  0
    4.2910   -0.4830   10.6770 C   0  0  0  0  0  0  0  0  0  0  0  0
    5.1350    0.6260   10.4720 C   0  0  0  0  0  3  0  0  0  0  0  0
    6.2950    0.7920   11.2370 C   0  0  0  0  0  0  0  0  0  0  0  0
    6.6580   -0.1660   12.1800 C   0  0  0  0  0  3  0  0  0  0  0  0
    5.8300   -1.2680   12.3940 C   0  0  0  0  0  3  0  0  0  0  0  0
    4.6380   -1.4410   11.6610 C   0  0  0  0  0  0  0  0  0  0  0  0
    7.2010    1.9410   11.0040 C   0  0  0  0  0  0  0  0  0  0  0  0
    8.1430    1.7720   10.2340 O   0  0  0  0  0  0  0  0  0  0  0  0
    6.9530    3.1490   11.6550 N   0  0  0  0  0  0  0  0  0  0  0  0
    6.0920    3.3240   12.8250 C   0  0  0  0  0  2  0  0  0  0  0  0
    6.9110    3.8000   14.0240 C   0  0  0  0  0  2  0  0  0  0  0  0
    7.7590    5.0270   13.6930 C   0  0  1  0  0  3  0  0  0  0  0  0
    8.5780    4.8340   12.4140 C   0  0  0  0  0  2  0  0  0  0  0  0
    7.7200    4.3260   11.2590 C   0  0  0  0  0  2  0  0  0  0  0  0
    6.9310    6.1850   13.6010 O   0  0  0  0  0  0  0  0  0  0  0  0
    6.4000    6.1360   12.7890 H   0  0  0  0  0  0  0  0  0  0  0  0
    3.8070   -2.6170   11.9490 C   0  0  0  0  0  0  0  0  0  0  0  0
    4.0140   -3.8250   11.2610 C   0  0  0  0  0  3  0  0  0  0  0  0
    3.2290   -4.9470   11.5360 C   0  0  0  0  0  3  0  0  0  0  0  0
    2.2330   -4.8730   12.5080 C   0  0  0  0  0  0  0  0  0  0  0  0
    1.2650   -6.2510   12.8500 Cl  0  0  0  0  0  0  0  0  0  0  0  0
    2.0190   -3.6860   13.2070 C   0  0  0  0  0  3  0  0  0  0  0  0
    2.8040   -2.5640   12.9300 C   0  0  0  0  0  3  0  0  0  0  0  0
  1  6  2  0  0  0  0
  1  2  1  0  0  0  0
  2  3  2  0  0  0  0
  3  4  1  0  0  0  0
  4 26  1  0  0  0  0
  5  4  2  0  0  0  0
  6  5  1  0  0  0  0
  7  6  1  0  0  0  0
  8 13  2  0  0  0  0
  8  9  1  0  0  0  0
  9 10  2  0  0  0  0
 10 11  1  0  0  0  0
 11 16  1  0  0  0  0
 12 14  1  0  0  0  0
 12 11  2  0  0  0  0
 13 12  1  0  0  0  0
 14 15  2  0  0  0  0
 15 16  1  0  0  0  0
 15  1  1  0  0  0  0
 16 17  1  0  0  0  0
 17 22  1  0  0  0  0
 17 18  1  0  0  0  0
 18 19  1  0  0  0  0
 19 20  1  0  0  0  0
 21 20  1  0  0  0  0
 22 21  1  0  0  0  0
 23 24  1  0  0  0  0
 24  8  1  0  0  0  0
 25 24  2  0  0  0  0
 26 27  1  0  0  0  0
 27 28  1  0  0  0  0
 28 33  1  0  0  0  0
 29 28  2  0  0  0  0
 29 30  1  0  0  0  0
 30 31  2  0  0  0  0
 31 32  1  0  0  0  0
 33 44  1  0  0  0  0
 33 32  2  0  0  0  0
 34 30  1  0  0  0  0
 34 36  1  0  0  0  0
 35 34  2  0  0  0  0
 36 37  1  0  0  0  0
 37 38  1  0  0  0  0
 39 42  1  6  0  0  0
 39 38  1  0  0  0  0
 40 39  1  0  0  0  0
 41 36  1  0  0  0  0
 41 40  1  0  0  0  0
 43 42  1  0  0  0  0
 44 50  1  0  0  0  0
 45 46  1  0  0  0  0
 45 44  2  0  0  0  0
 46 47  2  0  0  0  0
 47 48  1  0  0  0  0
 47 49  1  0  0  0  0
 50 49  2  0  0  0  0
M  END
>  <minimizedAffinity>
-10.0794325

$$$$
