
 OpenBabel09122222393D

 50 56  0  0  1  0  0  0  0  0999 V2000
    9.3380   -2.3100    3.4670 C   0  0  0  0  0  0  0  0  0  0  0  0
    9.9660   -2.8750    4.5820 C   0  0  0  0  0  3  0  0  0  0  0  0
   10.5510   -2.0580    5.5550 C   0  0  0  0  0  3  0  0  0  0  0  0
   10.5440   -0.6670    5.4230 C   0  0  0  0  0  0  0  0  0  0  0  0
    9.9400   -0.0980    4.3050 C   0  0  0  0  0  3  0  0  0  0  0  0
    9.3520   -0.9190    3.3400 C   0  0  0  0  0  0  0  0  0  0  0  0
    8.7740   -0.3260    2.2840 F   0  0  0  0  0  0  0  0  0  0  0  0
    6.2550   -6.0580   -0.0450 C   0  0  0  0  0  0  0  0  0  0  0  0
    7.2510   -5.7650   -0.9900 C   0  0  0  0  0  3  0  0  0  0  0  0
    8.3050   -4.8850   -0.7170 C   0  0  0  0  0  3  0  0  0  0  0  0
    8.3430   -4.2920    0.5520 C   0  0  0  0  0  0  0  0  0  0  0  0
    7.3760   -4.5630    1.5160 C   0  0  0  0  0  0  0  0  0  0  0  0
    6.3260   -5.4470    1.2230 C   0  0  0  0  0  3  0  0  0  0  0  0
    7.6250   -3.8600    2.6670 N   0  0  0  0  0  0  0  0  0  0  0  0
    8.7420   -3.1880    2.4600 C   0  0  0  0  0  0  0  0  0  0  0  0
    9.1900   -3.3830    1.1600 N   0  0  0  0  0  0  0  0  0  0  0  0
   10.2950   -2.6760    0.5170 C   0  0  0  0  0  3  0  0  0  0  0  0
   11.3700   -3.6220   -0.0420 C   0  0  0  0  0  2  0  0  0  0  0  0
   12.5360   -2.8400   -0.6440 C   0  0  0  0  0  2  0  0  0  0  0  0
   12.0610   -1.8390   -1.6950 C   0  0  0  0  0  2  0  0  0  0  0  0
   11.0020   -0.8940   -1.1350 C   0  0  0  0  0  2  0  0  0  0  0  0
    9.8230   -1.6580   -0.5360 C   0  0  0  0  0  2  0  0  0  0  0  0
    5.4300   -8.0530   -1.0460 O   0  0  0  0  0  0  0  0  0  0  0  0
    5.1250   -7.0100   -0.3840 C   0  0  0  0  0  0  0  0  0  0  0  0
    3.9590   -6.6960    0.0110 O   0  0  0  0  0  1  0  0  0  0  0  0
   11.1370   -0.0000    6.4540 O   0  0  0  0  0  0  0  0  0  0  0  0
   10.4970    1.1380    7.0270 C   0  0  0  0  0  2  0  0  0  0  0  0
   11.1660    2.4440    6.6440 C   0  0  0  0  0  0  0  0  0  0  0  0
   10.7300    3.1190    5.4860 C   0  0  0  0  0  3  0  0  0  0  0  0
   11.3060    4.3370    5.1100 C   0  0  0  0  0  0  0  0  0  0  0  0
   12.3560    4.8760    5.8490 C   0  0  0  0  0  3  0  0  0  0  0  0
   12.7960    4.2190    6.9990 C   0  0  0  0  0  3  0  0  0  0  0  0
   12.2090    3.0080    7.4180 C   0  0  0  0  0  0  0  0  0  0  0  0
   10.8710    5.0350    3.8780 C   0  0  0  0  0  0  0  0  0  0  0  0
   10.2140    6.0650    4.0130 O   0  0  0  0  0  0  0  0  0  0  0  0
   11.2170    4.5060    2.6350 N   0  0  0  0  0  0  0  0  0  0  0  0
   11.6730    3.1380    2.3890 C   0  0  0  0  0  2  0  0  0  0  0  0
   10.6770    2.3950    1.5010 C   0  0  0  0  0  2  0  0  0  0  0  0
   10.3460    3.1730    0.2280 C   0  0  1  0  0  3  0  0  0  0  0  0
    9.9580    4.6240    0.5240 C   0  0  0  0  0  2  0  0  0  0  0  0
   10.9670    5.3080    1.4400 C   0  0  0  0  0  2  0  0  0  0  0  0
   11.4430    3.1120   -0.6830 O   0  0  0  0  0  0  0  0  0  0  0  0
   12.1710    3.6600   -0.3470 H   0  0  0  0  0  0  0  0  0  0  0  0
   12.7130    2.3780    8.6460 C   0  0  0  0  0  0  0  0  0  0  0  0
   12.1460    2.6880    9.8930 C   0  0  0  0  0  3  0  0  0  0  0  0
   12.6200    2.0880   11.0620 C   0  0  0  0  0  3  0  0  0  0  0  0
   13.6630    1.1660   10.9920 C   0  0  0  0  0  0  0  0  0  0  0  0
   14.2490    0.4240   12.4280 Cl  0  0  0  0  0  0  0  0  0  0  0  0
   14.2320    0.8390    9.7630 C   0  0  0  0  0  3  0  0  0  0  0  0
   13.7580    1.4420    8.5950 C   0  0  0  0  0  3  0  0  0  0  0  0
  1  2  1  0  0  0  0
  2  3  2  0  0  0  0
  4  3  1  0  0  0  0
  4 26  1  0  0  0  0
  5  4  2  0  0  0  0
  6  1  2  0  0  0  0
  6  5  1  0  0  0  0
  7  6  1  0  0  0  0
  8 13  1  0  0  0  0
  9 10  1  0  0  0  0
  9  8  2  0  0  0  0
 10 11  2  0  0  0  0
 11 16  1  0  0  0  0
 11 12  1  0  0  0  0
 12 14  1  0  0  0  0
 13 12  2  0  0  0  0
 15 14  2  0  0  0  0
 15  1  1  0  0  0  0
 16 15  1  0  0  0  0
 17 16  1  0  0  0  0
 18 17  1  0  0  0  0
 19 18  1  0  0  0  0
 20 21  1  0  0  0  0
 20 19  1  0  0  0  0
 21 22  1  0  0  0  0
 22 17  1  0  0  0  0
 23 24  2  0  0  0  0
 24  8  1  0  0  0  0
 24 25  1  0  0  0  0
 26 27  1  0  0  0  0
 28 27  1  0  0  0  0
 28 33  1  0  0  0  0
 29 28  2  0  0  0  0
 30 29  1  0  0  0  0
 30 31  2  0  0  0  0
 31 32  1  0  0  0  0
 32 33  2  0  0  0  0
 33 44  1  0  0  0  0
 34 35  2  0  0  0  0
 34 30  1  0  0  0  0
 36 34  1  0  0  0  0
 37 36  1  0  0  0  0
 38 37  1  0  0  0  0
 39 42  1  6  0  0  0
 39 40  1  0  0  0  0
 39 38  1  0  0  0  0
 40 41  1  0  0  0  0
 41 36  1  0  0  0  0
 42 43  1  0  0  0  0
 44 45  1  0  0  0  0
 45 46  2  0  0  0  0
 47 46  1  0  0  0  0
 47 48  1  0  0  0  0
 49 47  2  0  0  0  0
 50 44  2  0  0  0  0
 50 49  1  0  0  0  0
M  END
>  <minimizedAffinity>
-9.79351425

$$$$
