
 OpenBabel09122222393D

 50 56  0  0  1  0  0  0  0  0999 V2000
    7.1820   -4.3530   11.5610 C   0  0  0  0  0  0  0  0  0  0  0  0
    6.1660   -4.8940   10.7660 C   0  0  0  0  0  3  0  0  0  0  0  0
    4.8570   -4.4100   10.8630 C   0  0  0  0  0  3  0  0  0  0  0  0
    4.5320   -3.3970   11.7690 C   0  0  0  0  0  0  0  0  0  0  0  0
    5.5320   -2.8690   12.5780 C   0  0  0  0  0  3  0  0  0  0  0  0
    6.8390   -3.3520   12.4730 C   0  0  0  0  0  0  0  0  0  0  0  0
    7.7730   -2.8070   13.2670 F   0  0  0  0  0  0  0  0  0  0  0  0
   12.4660   -7.1740   11.6430 C   0  0  0  0  0  0  0  0  0  0  0  0
   12.8550   -6.1700   10.7420 C   0  0  0  0  0  3  0  0  0  0  0  0
   11.9770   -5.1650   10.3180 C   0  0  0  0  0  3  0  0  0  0  0  0
   10.6720   -5.1850   10.8290 C   0  0  0  0  0  0  0  0  0  0  0  0
   10.2530   -6.1610   11.7280 C   0  0  0  0  0  0  0  0  0  0  0  0
   11.1470   -7.1610   12.1400 C   0  0  0  0  0  3  0  0  0  0  0  0
    8.9400   -5.9720   12.0740 N   0  0  0  0  0  0  0  0  0  0  0  0
    8.5400   -4.8840   11.4450 C   0  0  0  0  0  0  0  0  0  0  0  0
    9.5540   -4.3960   10.6310 N   0  0  0  0  0  0  0  0  0  0  0  0
    9.4300   -3.3100    9.6620 C   0  0  0  0  0  3  0  0  0  0  0  0
    8.2630   -3.5090    8.6810 C   0  0  0  0  0  2  0  0  0  0  0  0
    8.2130   -2.3870    7.6450 C   0  0  0  0  0  2  0  0  0  0  0  0
    8.1680   -1.0110    8.3070 C   0  0  0  0  0  2  0  0  0  0  0  0
    9.3330   -0.8110    9.2710 C   0  0  0  0  0  2  0  0  0  0  0  0
    9.3950   -1.9200   10.3200 C   0  0  0  0  0  2  0  0  0  0  0  0
   12.9890   -9.1870   12.7990 O   0  0  0  0  0  1  0  0  0  0  0  0
   13.4450   -8.2490   12.0700 C   0  0  0  0  0  0  0  0  0  0  0  0
   14.6470   -8.1340   11.6750 O   0  0  0  0  0  0  0  0  0  0  0  0
    3.2220   -3.0170   11.7420 O   0  0  0  0  0  0  0  0  0  0  0  0
    2.8600   -1.7570   11.1800 C   0  0  0  0  0  2  0  0  0  0  0  0
    3.3820   -1.5700    9.7680 C   0  0  0  0  0  0  0  0  0  0  0  0
    2.8580   -2.3750    8.7370 C   0  0  0  0  0  3  0  0  0  0  0  0
    3.2960   -2.2200    7.4170 C   0  0  0  0  0  0  0  0  0  0  0  0
    4.2960   -1.2990    7.1130 C   0  0  0  0  0  3  0  0  0  0  0  0
    4.8220   -0.4950    8.1240 C   0  0  0  0  0  3  0  0  0  0  0  0
    4.3720   -0.6080    9.4560 C   0  0  0  0  0  0  0  0  0  0  0  0
    2.7700   -3.0830    6.3350 C   0  0  0  0  0  0  0  0  0  0  0  0
    1.8950   -2.6130    5.6120 O   0  0  0  0  0  0  0  0  0  0  0  0
    3.2790   -4.3720    6.1810 N   0  0  0  0  0  0  0  0  0  0  0  0
    4.0390   -5.1120    7.1880 C   0  0  0  0  0  2  0  0  0  0  0  0
    3.2730   -6.3600    7.6240 C   0  0  0  0  0  2  0  0  0  0  0  0
    2.8320   -7.2120    6.4340 C   0  0  1  0  0  3  0  0  0  0  0  0
    2.1180   -6.3820    5.3650 C   0  0  0  0  0  2  0  0  0  0  0  0
    2.9070   -5.1320    4.9910 C   0  0  0  0  0  2  0  0  0  0  0  0
    3.9530   -7.9020    5.8820 O   0  0  0  0  0  0  0  0  0  0  0  0
    4.5250   -7.2670    5.4200 H   0  0  0  0  0  0  0  0  0  0  0  0
    4.9600    0.2810   10.4670 C   0  0  0  0  0  0  0  0  0  0  0  0
    6.1990   -0.0250   11.0540 C   0  0  0  0  0  3  0  0  0  0  0  0
    6.7630    0.8210   12.0130 C   0  0  0  0  0  3  0  0  0  0  0  0
    6.0950    1.9840   12.3880 C   0  0  0  0  0  0  0  0  0  0  0  0
    6.7850    3.0280   13.5670 Cl  0  0  0  0  0  0  0  0  0  0  0  0
    4.8690    2.3080   11.8100 C   0  0  0  0  0  3  0  0  0  0  0  0
    4.3050    1.4610   10.8530 C   0  0  0  0  0  3  0  0  0  0  0  0
  1  6  1  0  0  0  0
  2  3  1  0  0  0  0
  2  1  2  0  0  0  0
  3  4  2  0  0  0  0
  4  5  1  0  0  0  0
  6  5  2  0  0  0  0
  6  7  1  0  0  0  0
  8 24  1  0  0  0  0
  8 13  1  0  0  0  0
  9  8  2  0  0  0  0
 10  9  1  0  0  0  0
 10 11  2  0  0  0  0
 11 12  1  0  0  0  0
 12 14  1  0  0  0  0
 12 13  2  0  0  0  0
 15  1  1  0  0  0  0
 15 14  2  0  0  0  0
 16 11  1  0  0  0  0
 16 15  1  0  0  0  0
 17 22  1  0  0  0  0
 17 16  1  0  0  0  0
 18 17  1  0  0  0  0
 19 20  1  0  0  0  0
 19 18  1  0  0  0  0
 20 21  1  0  0  0  0
 21 22  1  0  0  0  0
 24 23  1  0  0  0  0
 25 24  2  0  0  0  0
 26  4  1  0  0  0  0
 27 26  1  0  0  0  0
 28 27  1  0  0  0  0
 29 28  2  0  0  0  0
 30 29  1  0  0  0  0
 31 30  2  0  0  0  0
 31 32  1  0  0  0  0
 32 33  2  0  0  0  0
 33 28  1  0  0  0  0
 33 44  1  0  0  0  0
 34 30  1  0  0  0  0
 35 34  2  0  0  0  0
 36 34  1  0  0  0  0
 36 37  1  0  0  0  0
 37 38  1  0  0  0  0
 39 42  1  6  0  0  0
 39 38  1  0  0  0  0
 40 39  1  0  0  0  0
 41 40  1  0  0  0  0
 41 36  1  0  0  0  0
 43 42  1  0  0  0  0
 44 50  2  0  0  0  0
 44 45  1  0  0  0  0
 45 46  2  0  0  0  0
 46 47  1  0  0  0  0
 47 48  1  0  0  0  0
 49 47  2  0  0  0  0
 50 49  1  0  0  0  0
M  END
>  <minimizedAffinity>
-9.88958645

$$$$
