
 OpenBabel09122222393D

 50 56  0  0  1  0  0  0  0  0999 V2000
    7.1700   -2.2840    7.1420 C   0  0  0  0  0  0  0  0  0  0  0  0
    6.0660   -1.4360    7.2800 C   0  0  0  0  0  3  0  0  0  0  0  0
    5.4600   -1.2610    8.5280 C   0  0  0  0  0  3  0  0  0  0  0  0
    5.9260   -1.9440    9.6550 C   0  0  0  0  0  0  0  0  0  0  0  0
    7.0100   -2.8050    9.5210 C   0  0  0  0  0  3  0  0  0  0  0  0
    7.6150   -2.9730    8.2730 C   0  0  0  0  0  0  0  0  0  0  0  0
    8.6630   -3.8070    8.1930 F   0  0  0  0  0  0  0  0  0  0  0  0
    8.9710   -3.5320    1.5660 C   0  0  0  0  0  0  0  0  0  0  0  0
   10.0190   -2.6440    1.8580 C   0  0  0  0  0  3  0  0  0  0  0  0
   10.1260   -1.9950    3.0940 C   0  0  0  0  0  3  0  0  0  0  0  0
    9.1400   -2.2610    4.0550 C   0  0  0  0  0  0  0  0  0  0  0  0
    8.0900   -3.1390    3.8020 C   0  0  0  0  0  0  0  0  0  0  0  0
    7.9990   -3.7800    2.5560 C   0  0  0  0  0  3  0  0  0  0  0  0
    7.2570   -3.2270    4.8870 N   0  0  0  0  0  0  0  0  0  0  0  0
    7.7790   -2.4570    5.8230 C   0  0  0  0  0  0  0  0  0  0  0  0
    8.9060   -1.8060    5.3390 N   0  0  0  0  0  0  0  0  0  0  0  0
    9.6500   -0.7520    6.0250 C   0  0  0  0  0  3  0  0  0  0  0  0
   10.7880   -1.2930    6.9050 C   0  0  0  0  0  2  0  0  0  0  0  0
   11.4940   -0.1650    7.6540 C   0  0  0  0  0  2  0  0  0  0  0  0
   11.9850    0.9230    6.7010 C   0  0  0  0  0  2  0  0  0  0  0  0
   10.8520    1.4680    5.8360 C   0  0  0  0  0  2  0  0  0  0  0  0
   10.1390    0.3540    5.0720 C   0  0  0  0  0  2  0  0  0  0  0  0
    9.6510   -3.7620   -0.7030 O   0  0  0  0  0  0  0  0  0  0  0  0
    8.8880   -4.2080    0.2120 C   0  0  0  0  0  0  0  0  0  0  0  0
    8.0600   -5.1650    0.0870 O   0  0  0  0  0  1  0  0  0  0  0  0
    5.2480   -1.6620   10.8050 O   0  0  0  0  0  0  0  0  0  0  0  0
    3.9550   -1.0650   10.7390 C   0  0  0  0  0  2  0  0  0  0  0  0
    2.8520   -2.0000   11.1960 C   0  0  0  0  0  0  0  0  0  0  0  0
    2.5740   -2.1030   12.5730 C   0  0  0  0  0  3  0  0  0  0  0  0
    1.5490   -2.9370   13.0350 C   0  0  0  0  0  0  0  0  0  0  0  0
    0.8220   -3.7170   12.1390 C   0  0  0  0  0  3  0  0  0  0  0  0
    1.0850   -3.6230   10.7730 C   0  0  0  0  0  3  0  0  0  0  0  0
    2.0890   -2.7640   10.2800 C   0  0  0  0  0  0  0  0  0  0  0  0
    1.2740   -3.0710   14.4840 C   0  0  0  0  0  0  0  0  0  0  0  0
    0.8220   -4.1440   14.8770 O   0  0  0  0  0  0  0  0  0  0  0  0
    1.5330   -1.9940   15.3310 N   0  0  0  0  0  0  0  0  0  0  0  0
    1.7260   -0.6070   14.9090 C   0  0  0  0  0  2  0  0  0  0  0  0
    0.6220    0.2820   15.4770 C   0  0  0  0  0  2  0  0  0  0  0  0
    0.4640    0.1130   16.9880 C   0  0  1  0  0  3  0  0  0  0  0  0
    0.3530   -1.3580   17.3950 C   0  0  0  0  0  2  0  0  0  0  0  0
    1.4580   -2.2070   16.7740 C   0  0  0  0  0  2  0  0  0  0  0  0
    1.5430    0.7520   17.6680 O   0  0  0  0  0  0  0  0  0  0  0  0
    2.3570    0.2370   17.5350 H   0  0  0  0  0  0  0  0  0  0  0  0
    2.3030   -2.7050    8.8280 C   0  0  0  0  0  0  0  0  0  0  0  0
    2.8590   -3.7970    8.1410 C   0  0  0  0  0  3  0  0  0  0  0  0
    3.0590   -3.7450    6.7590 C   0  0  0  0  0  3  0  0  0  0  0  0
    2.6980   -2.6020    6.0510 C   0  0  0  0  0  0  0  0  0  0  0  0
    2.9420   -2.5340    4.3510 Cl  0  0  0  0  0  0  0  0  0  0  0  0
    2.1370   -1.5110    6.7130 C   0  0  0  0  0  3  0  0  0  0  0  0
    1.9380   -1.5640    8.0960 C   0  0  0  0  0  3  0  0  0  0  0  0
  1  2  2  0  0  0  0
  1  6  1  0  0  0  0
  2  3  1  0  0  0  0
  3  4  2  0  0  0  0
  4 26  1  0  0  0  0
  5  4  1  0  0  0  0
  6  5  2  0  0  0  0
  7  6  1  0  0  0  0
  8  9  2  0  0  0  0
  8 13  1  0  0  0  0
  9 10  1  0  0  0  0
 10 11  2  0  0  0  0
 11 16  1  0  0  0  0
 12 11  1  0  0  0  0
 12 14  1  0  0  0  0
 13 12  2  0  0  0  0
 14 15  2  0  0  0  0
 15  1  1  0  0  0  0
 16 15  1  0  0  0  0
 16 17  1  0  0  0  0
 17 18  1  0  0  0  0
 18 19  1  0  0  0  0
 20 19  1  0  0  0  0
 21 20  1  0  0  0  0
 22 21  1  0  0  0  0
 22 17  1  0  0  0  0
 23 24  2  0  0  0  0
 24  8  1  0  0  0  0
 25 24  1  0  0  0  0
 27 26  1  0  0  0  0
 27 28  1  0  0  0  0
 28 29  1  0  0  0  0
 29 30  2  0  0  0  0
 30 34  1  0  0  0  0
 31 30  1  0  0  0  0
 32 31  2  0  0  0  0
 33 32  1  0  0  0  0
 33 28  2  0  0  0  0
 34 35  2  0  0  0  0
 34 36  1  0  0  0  0
 36 41  1  0  0  0  0
 37 36  1  0  0  0  0
 37 38  1  0  0  0  0
 38 39  1  0  0  0  0
 39 40  1  0  0  0  0
 39 42  1  1  0  0  0
 41 40  1  0  0  0  0
 43 42  1  0  0  0  0
 44 33  1  0  0  0  0
 45 44  1  0  0  0  0
 46 45  2  0  0  0  0
 47 49  2  0  0  0  0
 47 46  1  0  0  0  0
 48 47  1  0  0  0  0
 49 50  1  0  0  0  0
 50 44  2  0  0  0  0
M  END
>  <minimizedAffinity>
-10.1547556

$$$$
