
 OpenBabel08192222473D

 28 29  0  0  1  0  0  0  0  0999 V2000
   -7.9030   35.0610  -34.9620 C   0  0  0  0  0  0  0  0  0  0  0  0
   -7.9910   35.5370  -36.1010 O   0  0  0  0  0  0  0  0  0  0  0  0
   -7.3690   33.7730  -34.7130 N   0  0  0  0  0  0  0  0  0  0  0  0
   -9.0940   39.5330  -31.4080 C   0  0  0  0  0  1  0  0  0  0  0  0
   -8.8150   38.6300  -32.6100 C   0  0  2  0  0  3  0  0  0  0  0  0
   -9.8780   37.5290  -32.7120 C   0  0  0  0  0  2  0  0  0  0  0  0
   -9.5890   36.5790  -33.8700 C   0  0  0  0  0  2  0  0  0  0  0  0
   -8.1900   35.9610  -33.7500 C   0  0  2  0  0  3  0  0  0  0  0  0
   -7.1250   37.0640  -33.6770 C   0  0  0  0  0  2  0  0  0  0  0  0
   -7.4050   38.0290  -32.5240 C   0  0  0  0  0  2  0  0  0  0  0  0
   -7.7860   32.9500  -33.6210 C   0  0  0  0  0  0  0  0  0  0  0  0
   -9.1820   32.6190  -33.4020 C   0  0  0  0  0  3  0  0  0  0  0  0
   -9.4220   31.9090  -32.2520 C   0  0  0  0  0  0  0  0  0  0  0  0
   -7.9820   31.4970  -31.4730 S   0  0  0  0  0  0  0  0  0  0  0  0
   -7.0100   32.2920  -32.6600 C   0  0  0  0  0  0  0  0  0  0  0  0
   -5.5270   32.2450  -32.5290 C   0  0  0  0  0  0  0  0  0  0  0  0
   -4.9240   33.2350  -32.0350 O   0  0  0  0  0  1  0  0  0  0  0  0
   -4.9770   31.1600  -32.9070 O   0  0  0  0  0  0  0  0  0  0  0  0
  -10.7150   31.5730  -31.7590 C   0  0  0  0  0  0  0  0  0  0  0  0
  -11.7860   31.2480  -31.3220 C   0  0  0  0  0  0  0  0  0  0  0  0
  -13.0920   30.8050  -30.7860 C   0  0  0  0  0  0  0  0  0  0  0  0
  -14.2100   31.6560  -31.4050 C   0  0  0  0  0  1  0  0  0  0  0  0
  -13.3140   29.3280  -31.1360 C   0  0  0  0  0  1  0  0  0  0  0  0
  -13.1000   30.9800  -29.2610 C   0  0  0  0  0  1  0  0  0  0  0  0
   -6.5220   33.2260  -35.7470 N   0  0  0  0  0  4  0  0  0  0  0  0
   -5.1190   33.6380  -35.5390 C   0  0  0  0  0  1  0  0  0  0  0  0
   -6.8000   31.7820  -35.9660 C   0  0  0  0  0  1  0  0  0  0  0  0
   -6.8470   33.6450  -36.6540 H   0  0  0  0  0  0  0  0  0  0  0  0
  1  3  1  0  0  0  0
  2  1  2  0  0  0  0
  3 11  1  0  0  0  0
  5 10  1  0  0  0  0
  5  4  1  1  0  0  0
  6  5  1  0  0  0  0
  7  8  1  0  0  0  0
  7  6  1  0  0  0  0
  8  1  1  6  0  0  0
  8  9  1  0  0  0  0
  9 10  1  0  0  0  0
 11 12  1  0  0  0  0
 11 15  2  0  0  0  0
 12 13  2  0  0  0  0
 13 19  1  0  0  0  0
 13 14  1  0  0  0  0
 15 16  1  0  0  0  0
 15 14  1  0  0  0  0
 16 17  1  0  0  0  0
 18 16  2  0  0  0  0
 19 20  3  0  0  0  0
 20 21  1  0  0  0  0
 21 24  1  0  0  0  0
 22 21  1  0  0  0  0
 23 21  1  0  0  0  0
 25 26  1  0  0  0  0
 25  3  1  0  0  0  0
 27 25  1  0  0  0  0
 28 25  1  0  0  0  0
M  END
>  <minimizedAffinity>
-7.76863766

$$$$
