
 OpenBabel08192222473D

 28 29  0  0  1  0  0  0  0  0999 V2000
   -6.2710   35.1370  -34.0770 C   0  0  0  0  0  0  0  0  0  0  0  0
   -5.3570   35.7790  -34.6090 O   0  0  0  0  0  0  0  0  0  0  0  0
   -6.2930   33.7220  -34.0480 N   0  0  0  0  0  0  0  0  0  0  0  0
   -9.9630   39.0720  -31.8550 C   0  0  0  0  0  1  0  0  0  0  0  0
   -8.9250   38.3210  -32.6890 C   0  0  2  0  0  3  0  0  0  0  0  0
   -9.5490   37.0740  -33.3260 C   0  0  0  0  0  2  0  0  0  0  0  0
   -8.5170   36.2740  -34.1160 C   0  0  0  0  0  2  0  0  0  0  0  0
   -7.3210   35.8840  -33.2380 C   0  0  2  0  0  3  0  0  0  0  0  0
   -6.6800   37.1360  -32.6240 C   0  0  0  0  0  2  0  0  0  0  0  0
   -7.7040   37.9520  -31.8340 C   0  0  0  0  0  2  0  0  0  0  0  0
   -7.5020   32.9570  -34.0420 C   0  0  0  0  0  0  0  0  0  0  0  0
   -8.2640   32.7410  -32.8270 C   0  0  0  0  0  3  0  0  0  0  0  0
   -9.3380   31.8990  -32.9740 C   0  0  0  0  0  0  0  0  0  0  0  0
   -9.5520   31.4530  -34.5880 S   0  0  0  0  0  0  0  0  0  0  0  0
   -8.1830   32.3670  -35.1130 C   0  0  0  0  0  0  0  0  0  0  0  0
   -7.8490   32.3990  -36.5650 C   0  0  0  0  0  0  0  0  0  0  0  0
   -7.3750   31.3650  -37.1060 O   0  0  0  0  0  1  0  0  0  0  0  0
   -8.1090   33.4930  -37.1630 O   0  0  0  0  0  0  0  0  0  0  0  0
  -10.1630   31.4390  -31.9080 C   0  0  0  0  0  0  0  0  0  0  0  0
  -10.8980   31.0760  -31.0290 C   0  0  0  0  0  0  0  0  0  0  0  0
  -11.8270   30.6660  -29.9540 C   0  0  0  0  0  0  0  0  0  0  0  0
  -11.1390   30.8420  -28.5930 C   0  0  0  0  0  1  0  0  0  0  0  0
  -13.0900   31.5340  -30.0100 C   0  0  0  0  0  1  0  0  0  0  0  0
  -12.2070   29.1910  -30.1480 C   0  0  0  0  0  1  0  0  0  0  0  0
   -5.0230   33.0620  -34.2440 N   0  0  0  0  0  4  0  0  0  0  0  0
   -4.9640   31.8110  -33.4620 C   0  0  0  0  0  1  0  0  0  0  0  0
   -4.6600   33.0030  -35.6840 C   0  0  0  0  0  1  0  0  0  0  0  0
   -4.2870   33.7100  -33.8650 H   0  0  0  0  0  0  0  0  0  0  0  0
  1  3  1  0  0  0  0
  2  1  2  0  0  0  0
  3 11  1  0  0  0  0
  5  4  1  1  0  0  0
  5 10  1  0  0  0  0
  6  5  1  0  0  0  0
  7  6  1  0  0  0  0
  7  8  1  0  0  0  0
  8  1  1  6  0  0  0
  8  9  1  0  0  0  0
  9 10  1  0  0  0  0
 11 12  1  0  0  0  0
 13 12  2  0  0  0  0
 13 19  1  0  0  0  0
 14 13  1  0  0  0  0
 15 14  1  0  0  0  0
 15 11  2  0  0  0  0
 16 15  1  0  0  0  0
 17 16  1  0  0  0  0
 18 16  2  0  0  0  0
 19 20  3  0  0  0  0
 20 21  1  0  0  0  0
 21 22  1  0  0  0  0
 23 21  1  0  0  0  0
 24 21  1  0  0  0  0
 25  3  1  0  0  0  0
 25 28  1  0  0  0  0
 25 26  1  0  0  0  0
 27 25  1  0  0  0  0
M  END
>  <minimizedAffinity>
-6.2540307

$$$$
