
 OpenBabel09122222393D

 39 44  0  0  0  0  0  0  0  0999 V2000
    7.0960   -4.4640   11.2720 C   0  0  0  0  0  0  0  0  0  0  0  0
    6.1180   -5.0360   10.4530 C   0  0  0  0  0  3  0  0  0  0  0  0
    4.7720   -4.7070   10.6320 C   0  0  0  0  0  3  0  0  0  0  0  0
    4.3790   -3.8270   11.6440 C   0  0  0  0  0  0  0  0  0  0  0  0
    5.3490   -3.2550   12.4640 C   0  0  0  0  0  3  0  0  0  0  0  0
    6.6990   -3.5800   12.2820 C   0  0  0  0  0  3  0  0  0  0  0  0
   12.6540   -6.6870   11.1980 C   0  0  0  0  0  0  0  0  0  0  0  0
   12.8730   -5.7210   10.2040 C   0  0  0  0  0  3  0  0  0  0  0  0
   11.8740   -4.8260    9.7990 C   0  0  0  0  0  3  0  0  0  0  0  0
   10.6240   -4.9260   10.4220 C   0  0  0  0  0  0  0  0  0  0  0  0
   10.3690   -5.8760   11.4070 C   0  0  0  0  0  0  0  0  0  0  0  0
   11.3850   -6.7600   11.8040 C   0  0  0  0  0  3  0  0  0  0  0  0
    9.0760   -5.7830   11.8530 N   0  0  0  0  0  0  0  0  0  0  0  0
    8.5070   -4.8280   11.1430 C   0  0  0  0  0  0  0  0  0  0  0  0
    9.4360   -4.2290   10.3040 N   0  0  0  0  0  0  0  0  0  0  0  0
    9.2070   -3.0390    9.4880 C   0  0  0  0  0  3  0  0  0  0  0  0
    8.1650   -3.2590    8.3780 C   0  0  0  0  0  2  0  0  0  0  0  0
    7.9990   -2.0080    7.5170 C   0  0  0  0  0  2  0  0  0  0  0  0
    7.6760   -0.7800    8.3650 C   0  0  0  0  0  2  0  0  0  0  0  0
    8.7220   -0.5560    9.4550 C   0  0  0  0  0  2  0  0  0  0  0  0
    8.8950   -1.7940   10.3320 C   0  0  0  0  0  2  0  0  0  0  0  0
   13.4340   -8.6310   12.3320 O   0  0  0  0  0  1  0  0  0  0  0  0
   13.7640   -7.6350   11.6100 C   0  0  0  0  0  0  0  0  0  0  0  0
   14.9390   -7.3680   11.2070 O   0  0  0  0  0  0  0  0  0  0  0  0
    3.0290   -3.6480   11.7350 O   0  0  0  0  0  0  0  0  0  0  0  0
    2.4050   -2.6290   10.9560 C   0  0  0  0  0  2  0  0  0  0  0  0
    3.1040   -1.2780   10.9110 C   0  0  0  0  0  0  0  0  0  0  0  0
    3.3200   -0.6260   12.1450 C   0  0  0  0  0  3  0  0  0  0  0  0
    3.9570    0.6120   12.2100 C   0  0  0  0  0  3  0  0  0  0  0  0
    4.4040    1.2190   11.0450 C   0  0  0  0  0  3  0  0  0  0  0  0
    4.2200    0.5810    9.8180 C   0  0  0  0  0  3  0  0  0  0  0  0
    3.5800   -0.6720    9.7250 C   0  0  0  0  0  0  0  0  0  0  0  0
    3.4370   -1.2750    8.3910 C   0  0  0  0  0  0  0  0  0  0  0  0
    2.3220   -0.9720    7.5900 C   0  0  0  0  0  3  0  0  0  0  0  0
    2.1720   -1.5410    6.3220 C   0  0  0  0  0  3  0  0  0  0  0  0
    3.1430   -2.4140    5.8410 C   0  0  0  0  0  0  0  0  0  0  0  0
    2.9600   -3.1250    4.2850 Cl  0  0  0  0  0  0  0  0  0  0  0  0
    4.2630   -2.7180    6.6130 C   0  0  0  0  0  3  0  0  0  0  0  0
    4.4090   -2.1490    7.8800 C   0  0  0  0  0  3  0  0  0  0  0  0
  1  6  1  0  0  0  0
  2  3  1  0  0  0  0
  2  1  2  0  0  0  0
  3  4  2  0  0  0  0
  4 25  1  0  0  0  0
  4  5  1  0  0  0  0
  6  5  2  0  0  0  0
  7 23  1  0  0  0  0
  7 12  1  0  0  0  0
  8  7  2  0  0  0  0
  9  8  1  0  0  0  0
  9 10  2  0  0  0  0
 10 11  1  0  0  0  0
 11 12  2  0  0  0  0
 11 13  1  0  0  0  0
 14  1  1  0  0  0  0
 14 13  2  0  0  0  0
 15 10  1  0  0  0  0
 15 14  1  0  0  0  0
 16 15  1  0  0  0  0
 16 21  1  0  0  0  0
 17 16  1  0  0  0  0
 18 19  1  0  0  0  0
 18 17  1  0  0  0  0
 19 20  1  0  0  0  0
 20 21  1  0  0  0  0
 23 22  1  0  0  0  0
 24 23  2  0  0  0  0
 26 25  1  0  0  0  0
 27 26  1  0  0  0  0
 27 28  1  0  0  0  0
 28 29  2  0  0  0  0
 30 29  1  0  0  0  0
 31 30  2  0  0  0  0
 32 31  1  0  0  0  0
 32 27  2  0  0  0  0
 33 32  1  0  0  0  0
 34 33  2  0  0  0  0
 35 34  1  0  0  0  0
 36 35  2  0  0  0  0
 36 38  1  0  0  0  0
 37 36  1  0  0  0  0
 38 39  2  0  0  0  0
 39 33  1  0  0  0  0
M  END
>  <minimizedAffinity>
-8.30475521

$$$$
