
 OpenBabel09122221393D

 39 44  0  0  0  0  0  0  0  0999 V2000
    9.4900   -2.3690    3.4260 C   0  0  0  0  0  0  0  0  0  0  0  0
    9.3660   -0.9790    3.3370 C   0  0  0  0  0  3  0  0  0  0  0  0
    9.9150   -0.1610    4.3260 C   0  0  0  0  0  3  0  0  0  0  0  0
   10.5700   -0.7140    5.4300 C   0  0  0  0  0  0  0  0  0  0  0  0
   10.6940   -2.0980    5.5260 C   0  0  0  0  0  3  0  0  0  0  0  0
   10.1490   -2.9190    4.5310 C   0  0  0  0  0  3  0  0  0  0  0  0
    6.3370   -6.0850   -0.0510 C   0  0  0  0  0  0  0  0  0  0  0  0
    7.2010   -5.6390   -1.0640 C   0  0  0  0  0  3  0  0  0  0  0  0
    8.2340   -4.7260   -0.8160 C   0  0  0  0  0  3  0  0  0  0  0  0
    8.3830   -4.2560    0.4950 C   0  0  0  0  0  0  0  0  0  0  0  0
    7.5400   -4.6720    1.5230 C   0  0  0  0  0  0  0  0  0  0  0  0
    6.5140   -5.5920    1.2560 C   0  0  0  0  0  3  0  0  0  0  0  0
    7.8780   -4.0660    2.7060 N   0  0  0  0  0  0  0  0  0  0  0  0
    8.8810   -3.2540    2.4330 C   0  0  0  0  0  0  0  0  0  0  0  0
    9.2680   -3.3900    1.1070 N   0  0  0  0  0  0  0  0  0  0  0  0
   10.4380   -2.7690    0.4920 C   0  0  0  0  0  3  0  0  0  0  0  0
   11.4990   -3.7900    0.0450 C   0  0  0  0  0  2  0  0  0  0  0  0
   12.7260   -3.0940   -0.5410 C   0  0  0  0  0  2  0  0  0  0  0  0
   12.3470   -2.1380   -1.6690 C   0  0  0  0  0  2  0  0  0  0  0  0
   11.3060   -1.1160   -1.2170 C   0  0  0  0  0  2  0  0  0  0  0  0
   10.0670   -1.7930   -0.6360 C   0  0  0  0  0  2  0  0  0  0  0  0
    5.4700   -7.9420   -1.2640 O   0  0  0  0  0  0  0  0  0  0  0  0
    5.2320   -7.0770   -0.3610 C   0  0  0  0  0  0  0  0  0  0  0  0
    4.1530   -6.9740    0.3020 O   0  0  0  0  0  1  0  0  0  0  0  0
   11.0000    0.2060    6.3430 O   0  0  0  0  0  0  0  0  0  0  0  0
   10.1970    0.4800    7.4910 C   0  0  0  0  0  2  0  0  0  0  0  0
   10.3510   -0.4650    8.6740 C   0  0  0  0  0  0  0  0  0  0  0  0
   11.5580   -0.3870    9.4040 C   0  0  0  0  0  3  0  0  0  0  0  0
   11.7920   -1.2050   10.5080 C   0  0  0  0  0  3  0  0  0  0  0  0
   10.8210   -2.1100   10.9140 C   0  0  0  0  0  3  0  0  0  0  0  0
    9.6130   -2.1870   10.2190 C   0  0  0  0  0  3  0  0  0  0  0  0
    9.3510   -1.3690    9.1010 C   0  0  0  0  0  0  0  0  0  0  0  0
    8.0470   -1.5120    8.4350 C   0  0  0  0  0  0  0  0  0  0  0  0
    7.8510   -2.5070    7.4620 C   0  0  0  0  0  3  0  0  0  0  0  0
    6.6190   -2.6510    6.8180 C   0  0  0  0  0  3  0  0  0  0  0  0
    5.5680   -1.8020    7.1500 C   0  0  0  0  0  0  0  0  0  0  0  0
    4.0500   -1.9680    6.3550 Cl  0  0  0  0  0  0  0  0  0  0  0  0
    5.7350   -0.8160    8.1200 C   0  0  0  0  0  3  0  0  0  0  0  0
    6.9690   -0.6740    8.7610 C   0  0  0  0  0  3  0  0  0  0  0  0
  1  6  1  0  0  0  0
  2  1  2  0  0  0  0
  2  3  1  0  0  0  0
  3  4  2  0  0  0  0
  4  5  1  0  0  0  0
  4 25  1  0  0  0  0
  6  5  2  0  0  0  0
  7 12  1  0  0  0  0
  8  9  1  0  0  0  0
  8  7  2  0  0  0  0
  9 10  2  0  0  0  0
 10 15  1  0  0  0  0
 10 11  1  0  0  0  0
 11 13  1  0  0  0  0
 12 11  2  0  0  0  0
 14 13  2  0  0  0  0
 14  1  1  0  0  0  0
 15 14  1  0  0  0  0
 16 15  1  0  0  0  0
 17 16  1  0  0  0  0
 18 17  1  0  0  0  0
 19 20  1  0  0  0  0
 19 18  1  0  0  0  0
 20 21  1  0  0  0  0
 21 16  1  0  0  0  0
 22 23  2  0  0  0  0
 23  7  1  0  0  0  0
 23 24  1  0  0  0  0
 25 26  1  0  0  0  0
 26 27  1  0  0  0  0
 27 32  2  0  0  0  0
 27 28  1  0  0  0  0
 28 29  2  0  0  0  0
 29 30  1  0  0  0  0
 31 30  2  0  0  0  0
 32 31  1  0  0  0  0
 33 39  1  0  0  0  0
 33 32  1  0  0  0  0
 34 33  2  0  0  0  0
 35 36  2  0  0  0  0
 35 34  1  0  0  0  0
 36 38  1  0  0  0  0
 37 36  1  0  0  0  0
 38 39  2  0  0  0  0
M  END
>  <minimizedAffinity>
-8.68321896

$$$$

 OpenBabel09122221393D

 39 44  0  0  0  0  0  0  0  0999 V2000
    3.7620   -3.2090    5.6020 C   0  0  0  0  0  0  0  0  0  0  0  0
    4.8340   -2.7730    6.3880 C   0  0  0  0  0  3  0  0  0  0  0  0
    4.6300   -1.8150    7.3830 C   0  0  0  0  0  3  0  0  0  0  0  0
    3.3650   -1.2600    7.5940 C   0  0  0  0  0  0  0  0  0  0  0  0
    2.2940   -1.6890    6.8140 C   0  0  0  0  0  3  0  0  0  0  0  0
    2.4970   -2.6540    5.8180 C   0  0  0  0  0  3  0  0  0  0  0  0
    5.0770   -6.5360    0.8020 C   0  0  0  0  0  0  0  0  0  0  0  0
    4.5380   -7.5870    1.5610 C   0  0  0  0  0  3  0  0  0  0  0  0
    4.0060   -7.3870    2.8420 C   0  0  0  0  0  3  0  0  0  0  0  0
    4.0310   -6.0850    3.3580 C   0  0  0  0  0  0  0  0  0  0  0  0
    4.5630   -5.0200    2.6350 C   0  0  0  0  0  0  0  0  0  0  0  0
    5.0860   -5.2400    1.3510 C   0  0  0  0  0  3  0  0  0  0  0  0
    4.4840   -3.8550    3.3530 N   0  0  0  0  0  0  0  0  0  0  0  0
    3.9540   -4.1730    4.5180 C   0  0  0  0  0  0  0  0  0  0  0  0
    3.5980   -5.5140    4.5390 N   0  0  0  0  0  0  0  0  0  0  0  0
    2.8470   -6.1820    5.6000 C   0  0  0  0  0  3  0  0  0  0  0  0
    1.3620   -6.3830    5.2530 C   0  0  0  0  0  2  0  0  0  0  0  0
    0.6060   -7.0330    6.4110 C   0  0  0  0  0  2  0  0  0  0  0  0
    1.2680   -8.3360    6.8550 C   0  0  0  0  0  2  0  0  0  0  0  0
    2.7370   -8.1280    7.2130 C   0  0  0  0  0  2  0  0  0  0  0  0
    3.5120   -7.4870    6.0640 C   0  0  0  0  0  2  0  0  0  0  0  0
    5.3520   -7.9110   -1.1230 O   0  0  0  0  0  0  0  0  0  0  0  0
    5.6390   -6.7950   -0.5830 C   0  0  0  0  0  0  0  0  0  0  0  0
    6.3530   -5.8810   -1.1020 O   0  0  0  0  0  1  0  0  0  0  0  0
    3.3320   -0.2940    8.5590 O   0  0  0  0  0  0  0  0  0  0  0  0
    2.9760   -0.6530    9.8930 C   0  0  0  0  0  2  0  0  0  0  0  0
    4.0800   -1.2380   10.7610 C   0  0  0  0  0  0  0  0  0  0  0  0
    5.1030   -0.3570   11.1800 C   0  0  0  0  0  3  0  0  0  0  0  0
    6.1550   -0.7960   11.9820 C   0  0  0  0  0  3  0  0  0  0  0  0
    6.2010   -2.1200   12.3940 C   0  0  0  0  0  3  0  0  0  0  0  0
    5.1900   -3.0010   12.0100 C   0  0  0  0  0  3  0  0  0  0  0  0
    4.1140   -2.5810   11.2010 C   0  0  0  0  0  0  0  0  0  0  0  0
    3.0880   -3.5760   10.8520 C   0  0  0  0  0  0  0  0  0  0  0  0
    2.0290   -3.8460   11.7350 C   0  0  0  0  0  3  0  0  0  0  0  0
    1.0500   -4.7920   11.4170 C   0  0  0  0  0  3  0  0  0  0  0  0
    1.1200   -5.4720   10.2050 C   0  0  0  0  0  0  0  0  0  0  0  0
   -0.0770   -6.6440    9.8110 Cl  0  0  0  0  0  0  0  0  0  0  0  0
    2.1540   -5.2110    9.3080 C   0  0  0  0  0  3  0  0  0  0  0  0
    3.1310   -4.2660    9.6300 C   0  0  0  0  0  3  0  0  0  0  0  0
  1  6  2  0  0  0  0
  1  2  1  0  0  0  0
  2  3  2  0  0  0  0
  3  4  1  0  0  0  0
  4 25  1  0  0  0  0
  5  4  2  0  0  0  0
  6  5  1  0  0  0  0
  7 12  2  0  0  0  0
  7  8  1  0  0  0  0
  8  9  2  0  0  0  0
  9 10  1  0  0  0  0
 10 15  1  0  0  0  0
 11 13  1  0  0  0  0
 11 10  2  0  0  0  0
 12 11  1  0  0  0  0
 13 14  2  0  0  0  0
 14 15  1  0  0  0  0
 14  1  1  0  0  0  0
 15 16  1  0  0  0  0
 16 21  1  0  0  0  0
 17 16  1  0  0  0  0
 17 18  1  0  0  0  0
 18 19  1  0  0  0  0
 19 20  1  0  0  0  0
 21 20  1  0  0  0  0
 22 23  2  0  0  0  0
 23  7  1  0  0  0  0
 24 23  1  0  0  0  0
 25 26  1  0  0  0  0
 26 27  1  0  0  0  0
 27 28  2  0  0  0  0
 27 32  1  0  0  0  0
 28 29  1  0  0  0  0
 29 30  2  0  0  0  0
 31 30  1  0  0  0  0
 32 31  2  0  0  0  0
 33 32  1  0  0  0  0
 33 34  1  0  0  0  0
 35 34  2  0  0  0  0
 36 35  1  0  0  0  0
 37 36  1  0  0  0  0
 38 39  1  0  0  0  0
 38 36  2  0  0  0  0
 39 33  2  0  0  0  0
M  END
>  <minimizedAffinity>
-8.5660181

$$$$

 OpenBabel09122221393D

 39 44  0  0  0  0  0  0  0  0999 V2000
    3.5560   -5.6150    6.8140 C   0  0  0  0  0  0  0  0  0  0  0  0
    4.6370   -5.4360    7.6830 C   0  0  0  0  0  3  0  0  0  0  0  0
    4.4300   -4.9150    8.9620 C   0  0  0  0  0  3  0  0  0  0  0  0
    3.1510   -4.5400    9.3840 C   0  0  0  0  0  0  0  0  0  0  0  0
    2.0710   -4.7150    8.5210 C   0  0  0  0  0  3  0  0  0  0  0  0
    2.2770   -5.2420    7.2410 C   0  0  0  0  0  3  0  0  0  0  0  0
    4.9770   -7.0210    1.1700 C   0  0  0  0  0  0  0  0  0  0  0  0
    4.2400   -8.1880    1.4270 C   0  0  0  0  0  3  0  0  0  0  0  0
    3.6010   -8.4130    2.6540 C   0  0  0  0  0  3  0  0  0  0  0  0
    3.7230   -7.4250    3.6390 C   0  0  0  0  0  0  0  0  0  0  0  0
    4.4520   -6.2580    3.4220 C   0  0  0  0  0  0  0  0  0  0  0  0
    5.0800   -6.0480    2.1840 C   0  0  0  0  0  3  0  0  0  0  0  0
    4.4340   -5.4560    4.5330 N   0  0  0  0  0  0  0  0  0  0  0  0
    3.7480   -6.1100    5.4500 C   0  0  0  0  0  0  0  0  0  0  0  0
    3.2360   -7.2880    4.9250 N   0  0  0  0  0  0  0  0  0  0  0  0
    2.3030   -8.1880    5.5980 C   0  0  0  0  0  3  0  0  0  0  0  0
    2.7430   -8.5600    7.0240 C   0  0  0  0  0  2  0  0  0  0  0  0
    1.7680   -9.5440    7.6670 C   0  0  0  0  0  2  0  0  0  0  0  0
    0.3340   -9.0200    7.6340 C   0  0  0  0  0  2  0  0  0  0  0  0
   -0.1040   -8.6680    6.2140 C   0  0  0  0  0  2  0  0  0  0  0  0
    0.8540   -7.6770    5.5570 C   0  0  0  0  0  2  0  0  0  0  0  0
    6.4040   -5.7950   -0.2890 O   0  0  0  0  0  1  0  0  0  0  0  0
    5.6510   -6.8140   -0.1720 C   0  0  0  0  0  0  0  0  0  0  0  0
    5.4160   -7.6710   -1.0810 O   0  0  0  0  0  0  0  0  0  0  0  0
    3.1130   -3.9910   10.6340 O   0  0  0  0  0  0  0  0  0  0  0  0
    2.2860   -2.8520   10.8710 C   0  0  0  0  0  2  0  0  0  0  0  0
    2.9910   -1.5080   10.9840 C   0  0  0  0  0  0  0  0  0  0  0  0
    3.2280   -1.0150   12.2850 C   0  0  0  0  0  3  0  0  0  0  0  0
    3.8720    0.2040   12.4940 C   0  0  0  0  0  3  0  0  0  0  0  0
    4.3040    0.9490   11.4060 C   0  0  0  0  0  3  0  0  0  0  0  0
    4.0990    0.4700   10.1120 C   0  0  0  0  0  3  0  0  0  0  0  0
    3.4530   -0.7610    9.8750 C   0  0  0  0  0  0  0  0  0  0  0  0
    3.2870   -1.1930    8.4790 C   0  0  0  0  0  0  0  0  0  0  0  0
    2.0210   -1.1590    7.8690 C   0  0  0  0  0  3  0  0  0  0  0  0
    1.8490   -1.5710    6.5440 C   0  0  0  0  0  3  0  0  0  0  0  0
    2.9480   -2.0130    5.8150 C   0  0  0  0  0  0  0  0  0  0  0  0
    2.7420   -2.5300    4.1860 Cl  0  0  0  0  0  0  0  0  0  0  0  0
    4.2150   -2.0430    6.3940 C   0  0  0  0  0  3  0  0  0  0  0  0
    4.3830   -1.6320    7.7190 C   0  0  0  0  0  3  0  0  0  0  0  0
  1  6  2  0  0  0  0
  1  2  1  0  0  0  0
  2  3  2  0  0  0  0
  3  4  1  0  0  0  0
  4 25  1  0  0  0  0
  5  4  2  0  0  0  0
  6  5  1  0  0  0  0
  7  8  2  0  0  0  0
  7 12  1  0  0  0  0
  8  9  1  0  0  0  0
  9 10  2  0  0  0  0
 10 15  1  0  0  0  0
 11 10  1  0  0  0  0
 11 13  1  0  0  0  0
 12 11  2  0  0  0  0
 13 14  2  0  0  0  0
 14  1  1  0  0  0  0
 15 14  1  0  0  0  0
 15 16  1  0  0  0  0
 16 17  1  0  0  0  0
 17 18  1  0  0  0  0
 19 18  1  0  0  0  0
 20 19  1  0  0  0  0
 21 16  1  0  0  0  0
 21 20  1  0  0  0  0
 22 23  1  0  0  0  0
 23  7  1  0  0  0  0
 24 23  2  0  0  0  0
 25 26  1  0  0  0  0
 26 27  1  0  0  0  0
 27 28  1  0  0  0  0
 28 29  2  0  0  0  0
 30 29  1  0  0  0  0
 31 30  2  0  0  0  0
 32 31  1  0  0  0  0
 32 27  2  0  0  0  0
 33 32  1  0  0  0  0
 34 33  1  0  0  0  0
 35 34  2  0  0  0  0
 36 38  2  0  0  0  0
 36 35  1  0  0  0  0
 37 36  1  0  0  0  0
 38 39  1  0  0  0  0
 39 33  2  0  0  0  0
M  END
>  <minimizedAffinity>
-8.54866886

$$$$

 OpenBabel09122221393D

 39 44  0  0  0  0  0  0  0  0999 V2000
    9.4300   -2.2440    3.3430 C   0  0  0  0  0  0  0  0  0  0  0  0
    9.3970   -0.8570    3.1670 C   0  0  0  0  0  3  0  0  0  0  0  0
    9.9320   -0.0120    4.1420 C   0  0  0  0  0  3  0  0  0  0  0  0
   10.4820   -0.5340    5.3170 C   0  0  0  0  0  0  0  0  0  0  0  0
   10.5160   -1.9140    5.4980 C   0  0  0  0  0  3  0  0  0  0  0  0
    9.9840   -2.7620    4.5190 C   0  0  0  0  0  3  0  0  0  0  0  0
    6.3010   -6.0190   -0.0920 C   0  0  0  0  0  0  0  0  0  0  0  0
    7.2010   -5.6240   -1.0960 C   0  0  0  0  0  3  0  0  0  0  0  0
    8.2440   -4.7210   -0.8500 C   0  0  0  0  0  3  0  0  0  0  0  0
    8.3670   -4.2100    0.4480 C   0  0  0  0  0  0  0  0  0  0  0  0
    7.4890   -4.5740    1.4660 C   0  0  0  0  0  0  0  0  0  0  0  0
    6.4530   -5.4840    1.2020 C   0  0  0  0  0  3  0  0  0  0  0  0
    7.8060   -3.9340    2.6360 N   0  0  0  0  0  0  0  0  0  0  0  0
    8.8310   -3.1510    2.3640 C   0  0  0  0  0  0  0  0  0  0  0  0
    9.2510   -3.3390    1.0550 N   0  0  0  0  0  0  0  0  0  0  0  0
   10.4490   -2.7600    0.4510 C   0  0  0  0  0  3  0  0  0  0  0  0
   11.4890   -3.8170    0.0400 C   0  0  0  0  0  2  0  0  0  0  0  0
   12.7450   -3.1650   -0.5340 C   0  0  0  0  0  2  0  0  0  0  0  0
   12.4130   -2.2180   -1.6840 C   0  0  0  0  0  2  0  0  0  0  0  0
   11.3930   -1.1610   -1.2670 C   0  0  0  0  0  2  0  0  0  0  0  0
   10.1250   -1.7940   -0.6990 C   0  0  0  0  0  2  0  0  0  0  0  0
    5.4840   -8.0020   -1.1270 O   0  0  0  0  0  0  0  0  0  0  0  0
    5.1870   -7.0010   -0.3980 C   0  0  0  0  0  0  0  0  0  0  0  0
    4.0410   -6.7550    0.0940 O   0  0  0  0  0  1  0  0  0  0  0  0
   10.9100    0.4140    6.2020 O   0  0  0  0  0  0  0  0  0  0  0  0
   11.0070    1.7730    5.7770 C   0  0  0  0  0  2  0  0  0  0  0  0
   12.3940    2.3980    5.8000 C   0  0  0  0  0  0  0  0  0  0  0  0
   13.2600    2.0020    6.8430 C   0  0  0  0  0  3  0  0  0  0  0  0
   14.5520    2.5130    6.9480 C   0  0  0  0  0  3  0  0  0  0  0  0
   15.0120    3.4230    6.0050 C   0  0  0  0  0  3  0  0  0  0  0  0
   14.1800    3.8110    4.9550 C   0  0  0  0  0  3  0  0  0  0  0  0
   12.8700    3.3060    4.8250 C   0  0  0  0  0  0  0  0  0  0  0  0
   12.0660    3.7640    3.6820 C   0  0  0  0  0  0  0  0  0  0  0  0
   11.9660    2.9770    2.5210 C   0  0  0  0  0  3  0  0  0  0  0  0
   11.2090    3.4040    1.4260 C   0  0  0  0  0  3  0  0  0  0  0  0
   10.5380    4.6210    1.4870 C   0  0  0  0  0  0  0  0  0  0  0  0
    9.6120    5.1560    0.1390 Cl  0  0  0  0  0  0  0  0  0  0  0  0
   10.6120    5.4110    2.6320 C   0  0  0  0  0  3  0  0  0  0  0  0
   11.3710    4.9830    3.7240 C   0  0  0  0  0  3  0  0  0  0  0  0
  1  6  1  0  0  0  0
  2  1  2  0  0  0  0
  2  3  1  0  0  0  0
  3  4  2  0  0  0  0
  4  5  1  0  0  0  0
  4 25  1  0  0  0  0
  6  5  2  0  0  0  0
  7 12  1  0  0  0  0
  8  9  1  0  0  0  0
  8  7  2  0  0  0  0
  9 10  2  0  0  0  0
 10 15  1  0  0  0  0
 10 11  1  0  0  0  0
 11 13  1  0  0  0  0
 12 11  2  0  0  0  0
 14 13  2  0  0  0  0
 14  1  1  0  0  0  0
 15 14  1  0  0  0  0
 16 15  1  0  0  0  0
 17 16  1  0  0  0  0
 18 17  1  0  0  0  0
 19 20  1  0  0  0  0
 19 18  1  0  0  0  0
 20 21  1  0  0  0  0
 21 16  1  0  0  0  0
 22 23  2  0  0  0  0
 23  7  1  0  0  0  0
 23 24  1  0  0  0  0
 26 27  1  0  0  0  0
 26 25  1  0  0  0  0
 27 28  1  0  0  0  0
 28 29  2  0  0  0  0
 30 29  1  0  0  0  0
 31 30  2  0  0  0  0
 32 31  1  0  0  0  0
 32 27  2  0  0  0  0
 33 39  1  0  0  0  0
 33 32  1  0  0  0  0
 34 33  2  0  0  0  0
 35 36  2  0  0  0  0
 35 34  1  0  0  0  0
 36 38  1  0  0  0  0
 37 36  1  0  0  0  0
 38 39  2  0  0  0  0
M  END
>  <minimizedAffinity>
-8.51085091

$$$$

 OpenBabel09122221393D

 39 44  0  0  0  0  0  0  0  0999 V2000
    3.6960   -3.2230    5.5180 C   0  0  0  0  0  0  0  0  0  0  0  0
    4.7080   -2.8360    6.4030 C   0  0  0  0  0  3  0  0  0  0  0  0
    4.4610   -1.8580    7.3680 C   0  0  0  0  0  3  0  0  0  0  0  0
    3.2130   -1.2330    7.4500 C   0  0  0  0  0  0  0  0  0  0  0  0
    2.2020   -1.6130    6.5710 C   0  0  0  0  0  3  0  0  0  0  0  0
    2.4480   -2.5980    5.6060 C   0  0  0  0  0  3  0  0  0  0  0  0
    5.1330   -6.5980    0.7860 C   0  0  0  0  0  0  0  0  0  0  0  0
    4.7550   -7.6660    1.6150 C   0  0  0  0  0  3  0  0  0  0  0  0
    4.2690   -7.4680    2.9140 C   0  0  0  0  0  3  0  0  0  0  0  0
    4.1730   -6.1500    3.3760 C   0  0  0  0  0  0  0  0  0  0  0  0
    4.5450   -5.0660    2.5850 C   0  0  0  0  0  0  0  0  0  0  0  0
    5.0240   -5.2840    1.2830 C   0  0  0  0  0  3  0  0  0  0  0  0
    4.3720   -3.8850    3.2600 N   0  0  0  0  0  0  0  0  0  0  0  0
    3.9410   -4.2080    4.4640 C   0  0  0  0  0  0  0  0  0  0  0  0
    3.7390   -5.5770    4.5570 N   0  0  0  0  0  0  0  0  0  0  0  0
    3.1220   -6.2750    5.6820 C   0  0  0  0  0  3  0  0  0  0  0  0
    3.7180   -5.8730    7.0420 C   0  0  0  0  0  2  0  0  0  0  0  0
    3.0820   -6.6660    8.1820 C   0  0  0  0  0  2  0  0  0  0  0  0
    1.5600   -6.5480    8.1720 C   0  0  0  0  0  2  0  0  0  0  0  0
    0.9720   -6.9640    6.8260 C   0  0  0  0  0  2  0  0  0  0  0  0
    1.5880   -6.1740    5.6730 C   0  0  0  0  0  2  0  0  0  0  0  0
    5.3320   -7.9620   -1.1540 O   0  0  0  0  0  0  0  0  0  0  0  0
    5.6510   -6.8540   -0.6150 C   0  0  0  0  0  0  0  0  0  0  0  0
    6.3630   -5.9470   -1.1500 O   0  0  0  0  0  1  0  0  0  0  0  0
    3.1390   -0.2560    8.4010 O   0  0  0  0  0  0  0  0  0  0  0  0
    2.7770   -0.6090    9.7360 C   0  0  0  0  0  2  0  0  0  0  0  0
    3.7880   -0.2860   10.8260 C   0  0  0  0  0  0  0  0  0  0  0  0
    4.2200    1.0550   10.9250 C   0  0  0  0  0  3  0  0  0  0  0  0
    5.1400    1.4530   11.8940 C   0  0  0  0  0  3  0  0  0  0  0  0
    5.6380    0.5210   12.7940 C   0  0  0  0  0  3  0  0  0  0  0  0
    5.2080   -0.8040   12.7280 C   0  0  0  0  0  3  0  0  0  0  0  0
    4.2770   -1.2300   11.7590 C   0  0  0  0  0  0  0  0  0  0  0  0
    3.8730   -2.6450   11.7680 C   0  0  0  0  0  0  0  0  0  0  0  0
    4.6690   -3.6160   11.1370 C   0  0  0  0  0  3  0  0  0  0  0  0
    4.2950   -4.9630   11.1350 C   0  0  0  0  0  3  0  0  0  0  0  0
    3.1210   -5.3510   11.7740 C   0  0  0  0  0  0  0  0  0  0  0  0
    2.6490   -7.0060   11.7680 Cl  0  0  0  0  0  0  0  0  0  0  0  0
    2.3230   -4.4070   12.4170 C   0  0  0  0  0  3  0  0  0  0  0  0
    2.6990   -3.0610   12.4160 C   0  0  0  0  0  3  0  0  0  0  0  0
  1  6  2  0  0  0  0
  1  2  1  0  0  0  0
  2  3  2  0  0  0  0
  3  4  1  0  0  0  0
  4 25  1  0  0  0  0
  5  4  2  0  0  0  0
  6  5  1  0  0  0  0
  7 12  2  0  0  0  0
  7  8  1  0  0  0  0
  8  9  2  0  0  0  0
  9 10  1  0  0  0  0
 10 15  1  0  0  0  0
 11 13  1  0  0  0  0
 11 10  2  0  0  0  0
 12 11  1  0  0  0  0
 13 14  2  0  0  0  0
 14 15  1  0  0  0  0
 14  1  1  0  0  0  0
 15 16  1  0  0  0  0
 16 17  1  0  0  0  0
 17 18  1  0  0  0  0
 19 18  1  0  0  0  0
 20 19  1  0  0  0  0
 21 16  1  0  0  0  0
 21 20  1  0  0  0  0
 22 23  2  0  0  0  0
 23  7  1  0  0  0  0
 24 23  1  0  0  0  0
 25 26  1  0  0  0  0
 26 27  1  0  0  0  0
 27 28  2  0  0  0  0
 27 32  1  0  0  0  0
 28 29  1  0  0  0  0
 29 30  2  0  0  0  0
 31 30  1  0  0  0  0
 32 33  1  0  0  0  0
 32 31  2  0  0  0  0
 33 39  1  0  0  0  0
 34 33  2  0  0  0  0
 35 34  1  0  0  0  0
 35 36  2  0  0  0  0
 36 38  1  0  0  0  0
 37 36  1  0  0  0  0
 39 38  2  0  0  0  0
M  END
>  <minimizedAffinity>
-8.51013565

$$$$

 OpenBabel09122221393D

 39 44  0  0  0  0  0  0  0  0999 V2000
    3.7690   -3.1010    5.3330 C   0  0  0  0  0  0  0  0  0  0  0  0
    2.4920   -2.5790    5.5630 C   0  0  0  0  0  3  0  0  0  0  0  0
    2.2910   -1.6300    6.5670 C   0  0  0  0  0  3  0  0  0  0  0  0
    3.3520   -1.2060    7.3730 C   0  0  0  0  0  0  0  0  0  0  0  0
    4.6250   -1.7230    7.1500 C   0  0  0  0  0  3  0  0  0  0  0  0
    4.8280   -2.6710    6.1400 C   0  0  0  0  0  3  0  0  0  0  0  0
    5.1380   -6.6920    0.7430 C   0  0  0  0  0  0  0  0  0  0  0  0
    4.7900   -7.7220    1.6310 C   0  0  0  0  0  3  0  0  0  0  0  0
    4.3300   -7.4640    2.9300 C   0  0  0  0  0  3  0  0  0  0  0  0
    4.2300   -6.1250    3.3290 C   0  0  0  0  0  0  0  0  0  0  0  0
    4.5730   -5.0790    2.4760 C   0  0  0  0  0  0  0  0  0  0  0  0
    5.0260   -5.3570    1.1770 C   0  0  0  0  0  3  0  0  0  0  0  0
    4.4020   -3.8680    3.0960 N   0  0  0  0  0  0  0  0  0  0  0  0
    4.0010   -4.1340    4.3230 C   0  0  0  0  0  0  0  0  0  0  0  0
    3.8160   -5.4990    4.4880 N   0  0  0  0  0  0  0  0  0  0  0  0
    3.2320   -6.1460    5.6600 C   0  0  0  0  0  3  0  0  0  0  0  0
    3.8590   -5.6770    6.9850 C   0  0  0  0  0  2  0  0  0  0  0  0
    3.2570   -6.4190    8.1770 C   0  0  0  0  0  2  0  0  0  0  0  0
    1.7350   -6.3090    8.1990 C   0  0  0  0  0  2  0  0  0  0  0  0
    1.1150   -6.7910    6.8890 C   0  0  0  0  0  2  0  0  0  0  0  0
    1.6980   -6.0530    5.6850 C   0  0  0  0  0  2  0  0  0  0  0  0
    5.3190   -8.1540   -1.1270 O   0  0  0  0  0  1  0  0  0  0  0  0
    5.6280   -7.0130   -0.6560 C   0  0  0  0  0  0  0  0  0  0  0  0
    6.3070   -6.1220   -1.2550 O   0  0  0  0  0  0  0  0  0  0  0  0
    2.9920   -0.3220    8.3500 O   0  0  0  0  0  0  0  0  0  0  0  0
    2.2760   -0.7950    9.4900 C   0  0  0  0  0  2  0  0  0  0  0  0
    2.9570   -1.8660   10.3300 C   0  0  0  0  0  0  0  0  0  0  0  0
    2.3720   -3.1510   10.3280 C   0  0  0  0  0  3  0  0  0  0  0  0
    2.9240   -4.2010   11.0600 C   0  0  0  0  0  3  0  0  0  0  0  0
    4.0800   -3.9920   11.7990 C   0  0  0  0  0  3  0  0  0  0  0  0
    4.6860   -2.7350   11.7980 C   0  0  0  0  0  3  0  0  0  0  0  0
    4.1480   -1.6580   11.0630 C   0  0  0  0  0  0  0  0  0  0  0  0
    4.8580   -0.3700   11.1120 C   0  0  0  0  0  0  0  0  0  0  0  0
    5.9740   -0.1420   10.2890 C   0  0  0  0  0  3  0  0  0  0  0  0
    6.6600    1.0760   10.3290 C   0  0  0  0  0  3  0  0  0  0  0  0
    6.2280    2.0790   11.1910 C   0  0  0  0  0  0  0  0  0  0  0  0
    7.0730    3.5770   11.2520 Cl  0  0  0  0  0  0  0  0  0  0  0  0
    5.1160    1.8800   12.0070 C   0  0  0  0  0  3  0  0  0  0  0  0
    4.4340    0.6610   11.9650 C   0  0  0  0  0  3  0  0  0  0  0  0
  1  2  2  0  0  0  0
  1  6  1  0  0  0  0
  2  3  1  0  0  0  0
  3  4  2  0  0  0  0
  4 25  1  0  0  0  0
  5  4  1  0  0  0  0
  6  5  2  0  0  0  0
  7 12  2  0  0  0  0
  7  8  1  0  0  0  0
  8  9  2  0  0  0  0
  9 10  1  0  0  0  0
 10 15  1  0  0  0  0
 11 13  1  0  0  0  0
 11 10  2  0  0  0  0
 12 11  1  0  0  0  0
 13 14  2  0  0  0  0
 14 15  1  0  0  0  0
 14  1  1  0  0  0  0
 15 16  1  0  0  0  0
 16 21  1  0  0  0  0
 16 17  1  0  0  0  0
 17 18  1  0  0  0  0
 18 19  1  0  0  0  0
 20 19  1  0  0  0  0
 21 20  1  0  0  0  0
 22 23  1  0  0  0  0
 23  7  1  0  0  0  0
 24 23  2  0  0  0  0
 25 26  1  0  0  0  0
 26 27  1  0  0  0  0
 27 32  1  0  0  0  0
 28 27  2  0  0  0  0
 28 29  1  0  0  0  0
 29 30  2  0  0  0  0
 31 30  1  0  0  0  0
 32 33  1  0  0  0  0
 32 31  2  0  0  0  0
 33 39  1  0  0  0  0
 34 35  1  0  0  0  0
 34 33  2  0  0  0  0
 35 36  2  0  0  0  0
 36 37  1  0  0  0  0
 36 38  1  0  0  0  0
 39 38  2  0  0  0  0
M  END
>  <minimizedAffinity>
-8.4668169

$$$$

 OpenBabel09122221393D

 39 44  0  0  0  0  0  0  0  0999 V2000
    7.0960   -4.4640   11.2720 C   0  0  0  0  0  0  0  0  0  0  0  0
    6.1180   -5.0360   10.4530 C   0  0  0  0  0  3  0  0  0  0  0  0
    4.7720   -4.7070   10.6320 C   0  0  0  0  0  3  0  0  0  0  0  0
    4.3790   -3.8270   11.6440 C   0  0  0  0  0  0  0  0  0  0  0  0
    5.3490   -3.2550   12.4640 C   0  0  0  0  0  3  0  0  0  0  0  0
    6.6990   -3.5800   12.2820 C   0  0  0  0  0  3  0  0  0  0  0  0
   12.6540   -6.6870   11.1980 C   0  0  0  0  0  0  0  0  0  0  0  0
   12.8730   -5.7210   10.2040 C   0  0  0  0  0  3  0  0  0  0  0  0
   11.8740   -4.8260    9.7990 C   0  0  0  0  0  3  0  0  0  0  0  0
   10.6240   -4.9260   10.4220 C   0  0  0  0  0  0  0  0  0  0  0  0
   10.3690   -5.8760   11.4070 C   0  0  0  0  0  0  0  0  0  0  0  0
   11.3850   -6.7600   11.8040 C   0  0  0  0  0  3  0  0  0  0  0  0
    9.0760   -5.7830   11.8530 N   0  0  0  0  0  0  0  0  0  0  0  0
    8.5070   -4.8280   11.1430 C   0  0  0  0  0  0  0  0  0  0  0  0
    9.4360   -4.2290   10.3040 N   0  0  0  0  0  0  0  0  0  0  0  0
    9.2070   -3.0390    9.4880 C   0  0  0  0  0  3  0  0  0  0  0  0
    8.1650   -3.2590    8.3780 C   0  0  0  0  0  2  0  0  0  0  0  0
    7.9990   -2.0080    7.5170 C   0  0  0  0  0  2  0  0  0  0  0  0
    7.6760   -0.7800    8.3650 C   0  0  0  0  0  2  0  0  0  0  0  0
    8.7220   -0.5560    9.4550 C   0  0  0  0  0  2  0  0  0  0  0  0
    8.8950   -1.7940   10.3320 C   0  0  0  0  0  2  0  0  0  0  0  0
   13.4340   -8.6310   12.3320 O   0  0  0  0  0  1  0  0  0  0  0  0
   13.7640   -7.6350   11.6100 C   0  0  0  0  0  0  0  0  0  0  0  0
   14.9390   -7.3680   11.2070 O   0  0  0  0  0  0  0  0  0  0  0  0
    3.0290   -3.6480   11.7350 O   0  0  0  0  0  0  0  0  0  0  0  0
    2.4050   -2.6290   10.9560 C   0  0  0  0  0  2  0  0  0  0  0  0
    3.1040   -1.2780   10.9110 C   0  0  0  0  0  0  0  0  0  0  0  0
    3.3200   -0.6260   12.1450 C   0  0  0  0  0  3  0  0  0  0  0  0
    3.9570    0.6120   12.2100 C   0  0  0  0  0  3  0  0  0  0  0  0
    4.4040    1.2190   11.0450 C   0  0  0  0  0  3  0  0  0  0  0  0
    4.2200    0.5810    9.8180 C   0  0  0  0  0  3  0  0  0  0  0  0
    3.5800   -0.6720    9.7250 C   0  0  0  0  0  0  0  0  0  0  0  0
    3.4370   -1.2750    8.3910 C   0  0  0  0  0  0  0  0  0  0  0  0
    2.3220   -0.9720    7.5900 C   0  0  0  0  0  3  0  0  0  0  0  0
    2.1720   -1.5410    6.3220 C   0  0  0  0  0  3  0  0  0  0  0  0
    3.1430   -2.4140    5.8410 C   0  0  0  0  0  0  0  0  0  0  0  0
    2.9600   -3.1250    4.2850 Cl  0  0  0  0  0  0  0  0  0  0  0  0
    4.2630   -2.7180    6.6130 C   0  0  0  0  0  3  0  0  0  0  0  0
    4.4090   -2.1490    7.8800 C   0  0  0  0  0  3  0  0  0  0  0  0
  1  6  1  0  0  0  0
  2  3  1  0  0  0  0
  2  1  2  0  0  0  0
  3  4  2  0  0  0  0
  4 25  1  0  0  0  0
  4  5  1  0  0  0  0
  6  5  2  0  0  0  0
  7 23  1  0  0  0  0
  7 12  1  0  0  0  0
  8  7  2  0  0  0  0
  9  8  1  0  0  0  0
  9 10  2  0  0  0  0
 10 11  1  0  0  0  0
 11 12  2  0  0  0  0
 11 13  1  0  0  0  0
 14  1  1  0  0  0  0
 14 13  2  0  0  0  0
 15 10  1  0  0  0  0
 15 14  1  0  0  0  0
 16 15  1  0  0  0  0
 16 21  1  0  0  0  0
 17 16  1  0  0  0  0
 18 19  1  0  0  0  0
 18 17  1  0  0  0  0
 19 20  1  0  0  0  0
 20 21  1  0  0  0  0
 23 22  1  0  0  0  0
 24 23  2  0  0  0  0
 26 25  1  0  0  0  0
 27 26  1  0  0  0  0
 27 28  1  0  0  0  0
 28 29  2  0  0  0  0
 30 29  1  0  0  0  0
 31 30  2  0  0  0  0
 32 31  1  0  0  0  0
 32 27  2  0  0  0  0
 33 32  1  0  0  0  0
 34 33  2  0  0  0  0
 35 34  1  0  0  0  0
 36 35  2  0  0  0  0
 36 38  1  0  0  0  0
 37 36  1  0  0  0  0
 38 39  2  0  0  0  0
 39 33  1  0  0  0  0
M  END
>  <minimizedAffinity>
-8.30475521

$$$$

 OpenBabel09122221393D

 39 44  0  0  0  0  0  0  0  0999 V2000
    9.3700   -2.3440    3.4530 C   0  0  0  0  0  0  0  0  0  0  0  0
    9.9860   -2.8630    4.5960 C   0  0  0  0  0  3  0  0  0  0  0  0
   10.5790   -2.0040    5.5250 C   0  0  0  0  0  3  0  0  0  0  0  0
   10.5920   -0.6230    5.3150 C   0  0  0  0  0  0  0  0  0  0  0  0
    9.9820   -0.1010    4.1770 C   0  0  0  0  0  3  0  0  0  0  0  0
    9.3820   -0.9600    3.2490 C   0  0  0  0  0  3  0  0  0  0  0  0
    6.2980   -6.0200   -0.1370 C   0  0  0  0  0  0  0  0  0  0  0  0
    7.1990   -5.5810   -1.1200 C   0  0  0  0  0  3  0  0  0  0  0  0
    8.2330   -4.6790   -0.8350 C   0  0  0  0  0  3  0  0  0  0  0  0
    8.3430   -4.2130    0.4810 C   0  0  0  0  0  0  0  0  0  0  0  0
    7.4620   -4.6220    1.4800 C   0  0  0  0  0  0  0  0  0  0  0  0
    6.4370   -5.5310    1.1760 C   0  0  0  0  0  3  0  0  0  0  0  0
    7.7660   -4.0230    2.6750 N   0  0  0  0  0  0  0  0  0  0  0  0
    8.7860   -3.2210    2.4380 C   0  0  0  0  0  0  0  0  0  0  0  0
    9.2160   -3.3570    1.1250 N   0  0  0  0  0  0  0  0  0  0  0  0
   10.4120   -2.7470    0.5510 C   0  0  0  0  0  3  0  0  0  0  0  0
   11.4470   -3.7800    0.0710 C   0  0  0  0  0  2  0  0  0  0  0  0
   12.7020   -3.0980   -0.4700 C   0  0  0  0  0  2  0  0  0  0  0  0
   12.3660   -2.0820   -1.5600 C   0  0  0  0  0  2  0  0  0  0  0  0
   11.3510   -1.0500   -1.0750 C   0  0  0  0  0  2  0  0  0  0  0  0
   10.0850   -1.7120   -0.5380 C   0  0  0  0  0  2  0  0  0  0  0  0
    5.5270   -8.0280   -1.1590 O   0  0  0  0  0  0  0  0  0  0  0  0
    5.1940   -7.0000   -0.4860 C   0  0  0  0  0  0  0  0  0  0  0  0
    4.0210   -6.7260   -0.0810 O   0  0  0  0  0  1  0  0  0  0  0  0
   11.2600    0.0820    6.2760 O   0  0  0  0  0  0  0  0  0  0  0  0
   11.2380    1.5090    6.2370 C   0  0  0  0  0  2  0  0  0  0  0  0
   12.4870    2.1970    5.7050 C   0  0  0  0  0  0  0  0  0  0  0  0
   12.4420    2.6730    4.3770 C   0  0  0  0  0  3  0  0  0  0  0  0
   13.5320    3.3220    3.8000 C   0  0  0  0  0  3  0  0  0  0  0  0
   14.6870    3.5220    4.5450 C   0  0  0  0  0  3  0  0  0  0  0  0
   14.7440    3.0790    5.8660 C   0  0  0  0  0  3  0  0  0  0  0  0
   13.6540    2.4210    6.4720 C   0  0  0  0  0  0  0  0  0  0  0  0
   13.8000    1.9960    7.8730 C   0  0  0  0  0  0  0  0  0  0  0  0
   14.4700    0.8020    8.1870 C   0  0  0  0  0  3  0  0  0  0  0  0
   14.6120    0.3840    9.5140 C   0  0  0  0  0  3  0  0  0  0  0  0
   14.0880    1.1650   10.5400 C   0  0  0  0  0  0  0  0  0  0  0  0
   14.2510    0.6530   12.1750 Cl  0  0  0  0  0  0  0  0  0  0  0  0
   13.4310    2.3600   10.2520 C   0  0  0  0  0  3  0  0  0  0  0  0
   13.2890    2.7730    8.9250 C   0  0  0  0  0  3  0  0  0  0  0  0
  1  2  1  0  0  0  0
  2  3  2  0  0  0  0
  4  3  1  0  0  0  0
  4 25  1  0  0  0  0
  5  4  2  0  0  0  0
  6  1  2  0  0  0  0
  6  5  1  0  0  0  0
  7 12  1  0  0  0  0
  8  9  1  0  0  0  0
  8  7  2  0  0  0  0
  9 10  2  0  0  0  0
 10 15  1  0  0  0  0
 10 11  1  0  0  0  0
 11 13  1  0  0  0  0
 12 11  2  0  0  0  0
 14 13  2  0  0  0  0
 14  1  1  0  0  0  0
 15 14  1  0  0  0  0
 16 15  1  0  0  0  0
 17 16  1  0  0  0  0
 18 17  1  0  0  0  0
 19 20  1  0  0  0  0
 19 18  1  0  0  0  0
 20 21  1  0  0  0  0
 21 16  1  0  0  0  0
 22 23  2  0  0  0  0
 23  7  1  0  0  0  0
 23 24  1  0  0  0  0
 26 25  1  0  0  0  0
 27 26  1  0  0  0  0
 27 32  1  0  0  0  0
 28 27  2  0  0  0  0
 29 28  1  0  0  0  0
 29 30  2  0  0  0  0
 30 31  1  0  0  0  0
 31 32  2  0  0  0  0
 32 33  1  0  0  0  0
 33 34  2  0  0  0  0
 33 39  1  0  0  0  0
 34 35  1  0  0  0  0
 35 36  2  0  0  0  0
 36 37  1  0  0  0  0
 38 36  1  0  0  0  0
 39 38  2  0  0  0  0
M  END
>  <minimizedAffinity>
-8.25223923

$$$$

 OpenBabel09122221393D

 39 44  0  0  0  0  0  0  0  0999 V2000
    6.9410   -4.0110   11.5240 C   0  0  0  0  0  0  0  0  0  0  0  0
    6.5930   -3.0520   12.4810 C   0  0  0  0  0  3  0  0  0  0  0  0
    5.2560   -2.6870   12.6550 C   0  0  0  0  0  3  0  0  0  0  0  0
    4.2520   -3.2490   11.8620 C   0  0  0  0  0  0  0  0  0  0  0  0
    4.5930   -4.2020   10.9050 C   0  0  0  0  0  3  0  0  0  0  0  0
    5.9320   -4.5740   10.7340 C   0  0  0  0  0  3  0  0  0  0  0  0
   12.4740   -6.2390   11.0120 C   0  0  0  0  0  0  0  0  0  0  0  0
   12.6140   -5.2750   10.0020 C   0  0  0  0  0  3  0  0  0  0  0  0
   11.5860   -4.3790    9.6760 C   0  0  0  0  0  3  0  0  0  0  0  0
   10.3890   -4.4770   10.3970 C   0  0  0  0  0  0  0  0  0  0  0  0
   10.2130   -5.4260   11.4010 C   0  0  0  0  0  0  0  0  0  0  0  0
   11.2560   -6.3100   11.7160 C   0  0  0  0  0  3  0  0  0  0  0  0
    8.9590   -5.3310   11.9480 N   0  0  0  0  0  0  0  0  0  0  0  0
    8.3370   -4.3760   11.2840 C   0  0  0  0  0  0  0  0  0  0  0  0
    9.1970   -3.7790   10.3720 N   0  0  0  0  0  0  0  0  0  0  0  0
    8.9050   -2.5910    9.5760 C   0  0  0  0  0  3  0  0  0  0  0  0
   10.0770   -1.5950    9.5240 C   0  0  0  0  0  2  0  0  0  0  0  0
    9.7080   -0.3450    8.7280 C   0  0  0  0  0  2  0  0  0  0  0  0
    9.1990   -0.6950    7.3320 C   0  0  0  0  0  2  0  0  0  0  0  0
    8.0260   -1.6700    7.3880 C   0  0  0  0  0  2  0  0  0  0  0  0
    8.3780   -2.9320    8.1730 C   0  0  0  0  0  2  0  0  0  0  0  0
   14.7700   -6.8630   10.9200 O   0  0  0  0  0  0  0  0  0  0  0  0
   13.6120   -7.1880   11.3370 C   0  0  0  0  0  0  0  0  0  0  0  0
   13.3280   -8.2340   11.9990 O   0  0  0  0  0  1  0  0  0  0  0  0
    3.0040   -2.7500   12.1040 O   0  0  0  0  0  0  0  0  0  0  0  0
    2.6050   -1.5320   11.4780 C   0  0  0  0  0  2  0  0  0  0  0  0
    2.8760   -1.4100    9.9860 C   0  0  0  0  0  0  0  0  0  0  0  0
    2.0310   -2.1350    9.1180 C   0  0  0  0  0  3  0  0  0  0  0  0
    2.1940   -2.0850    7.7340 C   0  0  0  0  0  3  0  0  0  0  0  0
    3.1980   -1.2970    7.1880 C   0  0  0  0  0  3  0  0  0  0  0  0
    4.0300   -0.5550    8.0260 C   0  0  0  0  0  3  0  0  0  0  0  0
    3.8830   -0.5880    9.4280 C   0  0  0  0  0  0  0  0  0  0  0  0
    4.8000    0.2330   10.2350 C   0  0  0  0  0  0  0  0  0  0  0  0
    4.3270    1.3720   10.9100 C   0  0  0  0  0  3  0  0  0  0  0  0
    5.1890    2.1630   11.6750 C   0  0  0  0  0  3  0  0  0  0  0  0
    6.5320    1.8150   11.7780 C   0  0  0  0  0  0  0  0  0  0  0  0
    7.6000    2.7900   12.7120 Cl  0  0  0  0  0  0  0  0  0  0  0  0
    7.0200    0.6830   11.1280 C   0  0  0  0  0  3  0  0  0  0  0  0
    6.1560   -0.1040   10.3620 C   0  0  0  0  0  3  0  0  0  0  0  0
  1  2  1  0  0  0  0
  2  3  2  0  0  0  0
  4 25  1  0  0  0  0
  4  3  1  0  0  0  0
  5  4  2  0  0  0  0
  6  5  1  0  0  0  0
  6  1  2  0  0  0  0
  7 23  1  0  0  0  0
  7 12  1  0  0  0  0
  8  7  2  0  0  0  0
  9  8  1  0  0  0  0
  9 10  2  0  0  0  0
 10 11  1  0  0  0  0
 11 12  2  0  0  0  0
 11 13  1  0  0  0  0
 14  1  1  0  0  0  0
 14 13  2  0  0  0  0
 15 10  1  0  0  0  0
 15 14  1  0  0  0  0
 16 15  1  0  0  0  0
 17 16  1  0  0  0  0
 18 17  1  0  0  0  0
 19 20  1  0  0  0  0
 19 18  1  0  0  0  0
 20 21  1  0  0  0  0
 21 16  1  0  0  0  0
 22 23  2  0  0  0  0
 23 24  1  0  0  0  0
 26 25  1  0  0  0  0
 27 26  1  0  0  0  0
 28 27  2  0  0  0  0
 29 28  1  0  0  0  0
 30 29  2  0  0  0  0
 30 31  1  0  0  0  0
 31 32  2  0  0  0  0
 32 27  1  0  0  0  0
 32 33  1  0  0  0  0
 33 39  2  0  0  0  0
 33 34  1  0  0  0  0
 34 35  2  0  0  0  0
 35 36  1  0  0  0  0
 36 37  1  0  0  0  0
 38 36  2  0  0  0  0
 39 38  1  0  0  0  0
M  END
>  <minimizedAffinity>
-8.24956036

$$$$

 OpenBabel09122221393D

 39 44  0  0  0  0  0  0  0  0999 V2000
    9.3450   -2.3330    3.4310 C   0  0  0  0  0  0  0  0  0  0  0  0
    9.9960   -2.8380    4.5610 C   0  0  0  0  0  3  0  0  0  0  0  0
   10.5910   -1.9670    5.4760 C   0  0  0  0  0  3  0  0  0  0  0  0
   10.5690   -0.5860    5.2670 C   0  0  0  0  0  0  0  0  0  0  0  0
    9.9230   -0.0770    4.1430 C   0  0  0  0  0  3  0  0  0  0  0  0
    9.3220   -0.9490    3.2270 C   0  0  0  0  0  3  0  0  0  0  0  0
    6.2600   -6.0500   -0.1070 C   0  0  0  0  0  0  0  0  0  0  0  0
    7.1640   -5.6280   -1.0950 C   0  0  0  0  0  3  0  0  0  0  0  0
    8.2010   -4.7260   -0.8230 C   0  0  0  0  0  3  0  0  0  0  0  0
    8.3120   -4.2420    0.4860 C   0  0  0  0  0  0  0  0  0  0  0  0
    7.4300   -4.6330    1.4900 C   0  0  0  0  0  0  0  0  0  0  0  0
    6.4010   -5.5430    1.1990 C   0  0  0  0  0  3  0  0  0  0  0  0
    7.7350   -4.0170    2.6760 N   0  0  0  0  0  0  0  0  0  0  0  0
    8.7580   -3.2230    2.4280 C   0  0  0  0  0  0  0  0  0  0  0  0
    9.1880   -3.3800    1.1180 N   0  0  0  0  0  0  0  0  0  0  0  0
   10.3860   -2.7820    0.5350 C   0  0  0  0  0  3  0  0  0  0  0  0
   11.4340   -3.8250    0.1060 C   0  0  0  0  0  2  0  0  0  0  0  0
   12.6900   -3.1540   -0.4450 C   0  0  0  0  0  2  0  0  0  0  0  0
   12.3600   -2.1820   -1.5750 C   0  0  0  0  0  2  0  0  0  0  0  0
   11.3330   -1.1390   -1.1410 C   0  0  0  0  0  2  0  0  0  0  0  0
   10.0650   -1.7910   -0.5940 C   0  0  0  0  0  2  0  0  0  0  0  0
    3.9860   -6.7480   -0.0220 O   0  0  0  0  0  1  0  0  0  0  0  0
    5.1540   -7.0310   -0.4420 C   0  0  0  0  0  0  0  0  0  0  0  0
    5.4710   -8.0610   -1.1160 O   0  0  0  0  0  0  0  0  0  0  0  0
   11.2420    0.1340    6.2130 O   0  0  0  0  0  0  0  0  0  0  0  0
   10.8270    0.0540    7.5760 C   0  0  0  0  0  2  0  0  0  0  0  0
   11.9180   -0.1830    8.6100 C   0  0  0  0  0  0  0  0  0  0  0  0
   13.0980    0.5830    8.4850 C   0  0  0  0  0  3  0  0  0  0  0  0
   14.1520    0.4430    9.3860 C   0  0  0  0  0  3  0  0  0  0  0  0
   14.0450   -0.4550   10.4380 C   0  0  0  0  0  3  0  0  0  0  0  0
   12.8800   -1.2060   10.5920 C   0  0  0  0  0  3  0  0  0  0  0  0
   11.7980   -1.0810    9.6960 C   0  0  0  0  0  0  0  0  0  0  0  0
   10.6050   -1.9060    9.9400 C   0  0  0  0  0  0  0  0  0  0  0  0
   10.5060   -3.1950    9.3880 C   0  0  0  0  0  3  0  0  0  0  0  0
    9.3760   -3.9880    9.6090 C   0  0  0  0  0  3  0  0  0  0  0  0
    8.3350   -3.4970   10.3920 C   0  0  0  0  0  0  0  0  0  0  0  0
    6.9370   -4.4630   10.6600 Cl  0  0  0  0  0  0  0  0  0  0  0  0
    8.4170   -2.2270   10.9590 C   0  0  0  0  0  3  0  0  0  0  0  0
    9.5470   -1.4370   10.7360 C   0  0  0  0  0  3  0  0  0  0  0  0
  1  2  1  0  0  0  0
  2  3  2  0  0  0  0
  4  3  1  0  0  0  0
  4 25  1  0  0  0  0
  5  4  2  0  0  0  0
  6  1  2  0  0  0  0
  6  5  1  0  0  0  0
  7 12  1  0  0  0  0
  8  9  1  0  0  0  0
  8  7  2  0  0  0  0
  9 10  2  0  0  0  0
 10 15  1  0  0  0  0
 10 11  1  0  0  0  0
 11 13  1  0  0  0  0
 12 11  2  0  0  0  0
 14 13  2  0  0  0  0
 14  1  1  0  0  0  0
 15 14  1  0  0  0  0
 16 15  1  0  0  0  0
 17 16  1  0  0  0  0
 18 17  1  0  0  0  0
 19 20  1  0  0  0  0
 19 18  1  0  0  0  0
 20 21  1  0  0  0  0
 21 16  1  0  0  0  0
 23  7  1  0  0  0  0
 23 22  1  0  0  0  0
 24 23  2  0  0  0  0
 25 26  1  0  0  0  0
 26 27  1  0  0  0  0
 27 32  1  0  0  0  0
 28 27  2  0  0  0  0
 28 29  1  0  0  0  0
 29 30  2  0  0  0  0
 30 31  1  0  0  0  0
 32 33  1  0  0  0  0
 32 31  2  0  0  0  0
 33 39  1  0  0  0  0
 34 35  1  0  0  0  0
 34 33  2  0  0  0  0
 35 36  2  0  0  0  0
 36 37  1  0  0  0  0
 36 38  1  0  0  0  0
 39 38  2  0  0  0  0
M  END
>  <minimizedAffinity>
-8.13762474

$$$$
