
 OpenBabel09122222393D

 39 44  0  0  0  0  0  0  0  0999 V2000
    9.4300   -2.2440    3.3430 C   0  0  0  0  0  0  0  0  0  0  0  0
    9.3970   -0.8570    3.1670 C   0  0  0  0  0  3  0  0  0  0  0  0
    9.9320   -0.0120    4.1420 C   0  0  0  0  0  3  0  0  0  0  0  0
   10.4820   -0.5340    5.3170 C   0  0  0  0  0  0  0  0  0  0  0  0
   10.5160   -1.9140    5.4980 C   0  0  0  0  0  3  0  0  0  0  0  0
    9.9840   -2.7620    4.5190 C   0  0  0  0  0  3  0  0  0  0  0  0
    6.3010   -6.0190   -0.0920 C   0  0  0  0  0  0  0  0  0  0  0  0
    7.2010   -5.6240   -1.0960 C   0  0  0  0  0  3  0  0  0  0  0  0
    8.2440   -4.7210   -0.8500 C   0  0  0  0  0  3  0  0  0  0  0  0
    8.3670   -4.2100    0.4480 C   0  0  0  0  0  0  0  0  0  0  0  0
    7.4890   -4.5740    1.4660 C   0  0  0  0  0  0  0  0  0  0  0  0
    6.4530   -5.4840    1.2020 C   0  0  0  0  0  3  0  0  0  0  0  0
    7.8060   -3.9340    2.6360 N   0  0  0  0  0  0  0  0  0  0  0  0
    8.8310   -3.1510    2.3640 C   0  0  0  0  0  0  0  0  0  0  0  0
    9.2510   -3.3390    1.0550 N   0  0  0  0  0  0  0  0  0  0  0  0
   10.4490   -2.7600    0.4510 C   0  0  0  0  0  3  0  0  0  0  0  0
   11.4890   -3.8170    0.0400 C   0  0  0  0  0  2  0  0  0  0  0  0
   12.7450   -3.1650   -0.5340 C   0  0  0  0  0  2  0  0  0  0  0  0
   12.4130   -2.2180   -1.6840 C   0  0  0  0  0  2  0  0  0  0  0  0
   11.3930   -1.1610   -1.2670 C   0  0  0  0  0  2  0  0  0  0  0  0
   10.1250   -1.7940   -0.6990 C   0  0  0  0  0  2  0  0  0  0  0  0
    5.4840   -8.0020   -1.1270 O   0  0  0  0  0  0  0  0  0  0  0  0
    5.1870   -7.0010   -0.3980 C   0  0  0  0  0  0  0  0  0  0  0  0
    4.0410   -6.7550    0.0940 O   0  0  0  0  0  1  0  0  0  0  0  0
   10.9100    0.4140    6.2020 O   0  0  0  0  0  0  0  0  0  0  0  0
   11.0070    1.7730    5.7770 C   0  0  0  0  0  2  0  0  0  0  0  0
   12.3940    2.3980    5.8000 C   0  0  0  0  0  0  0  0  0  0  0  0
   13.2600    2.0020    6.8430 C   0  0  0  0  0  3  0  0  0  0  0  0
   14.5520    2.5130    6.9480 C   0  0  0  0  0  3  0  0  0  0  0  0
   15.0120    3.4230    6.0050 C   0  0  0  0  0  3  0  0  0  0  0  0
   14.1800    3.8110    4.9550 C   0  0  0  0  0  3  0  0  0  0  0  0
   12.8700    3.3060    4.8250 C   0  0  0  0  0  0  0  0  0  0  0  0
   12.0660    3.7640    3.6820 C   0  0  0  0  0  0  0  0  0  0  0  0
   11.9660    2.9770    2.5210 C   0  0  0  0  0  3  0  0  0  0  0  0
   11.2090    3.4040    1.4260 C   0  0  0  0  0  3  0  0  0  0  0  0
   10.5380    4.6210    1.4870 C   0  0  0  0  0  0  0  0  0  0  0  0
    9.6120    5.1560    0.1390 Cl  0  0  0  0  0  0  0  0  0  0  0  0
   10.6120    5.4110    2.6320 C   0  0  0  0  0  3  0  0  0  0  0  0
   11.3710    4.9830    3.7240 C   0  0  0  0  0  3  0  0  0  0  0  0
  1  6  1  0  0  0  0
  2  1  2  0  0  0  0
  2  3  1  0  0  0  0
  3  4  2  0  0  0  0
  4  5  1  0  0  0  0
  4 25  1  0  0  0  0
  6  5  2  0  0  0  0
  7 12  1  0  0  0  0
  8  9  1  0  0  0  0
  8  7  2  0  0  0  0
  9 10  2  0  0  0  0
 10 15  1  0  0  0  0
 10 11  1  0  0  0  0
 11 13  1  0  0  0  0
 12 11  2  0  0  0  0
 14 13  2  0  0  0  0
 14  1  1  0  0  0  0
 15 14  1  0  0  0  0
 16 15  1  0  0  0  0
 17 16  1  0  0  0  0
 18 17  1  0  0  0  0
 19 20  1  0  0  0  0
 19 18  1  0  0  0  0
 20 21  1  0  0  0  0
 21 16  1  0  0  0  0
 22 23  2  0  0  0  0
 23  7  1  0  0  0  0
 23 24  1  0  0  0  0
 26 27  1  0  0  0  0
 26 25  1  0  0  0  0
 27 28  1  0  0  0  0
 28 29  2  0  0  0  0
 30 29  1  0  0  0  0
 31 30  2  0  0  0  0
 32 31  1  0  0  0  0
 32 27  2  0  0  0  0
 33 39  1  0  0  0  0
 33 32  1  0  0  0  0
 34 33  2  0  0  0  0
 35 36  2  0  0  0  0
 35 34  1  0  0  0  0
 36 38  1  0  0  0  0
 37 36  1  0  0  0  0
 38 39  2  0  0  0  0
M  END
>  <minimizedAffinity>
-8.51085091

$$$$
