
 OpenBabel09122222393D

 39 44  0  0  0  0  0  0  0  0999 V2000
    9.3700   -2.3440    3.4530 C   0  0  0  0  0  0  0  0  0  0  0  0
    9.9860   -2.8630    4.5960 C   0  0  0  0  0  3  0  0  0  0  0  0
   10.5790   -2.0040    5.5250 C   0  0  0  0  0  3  0  0  0  0  0  0
   10.5920   -0.6230    5.3150 C   0  0  0  0  0  0  0  0  0  0  0  0
    9.9820   -0.1010    4.1770 C   0  0  0  0  0  3  0  0  0  0  0  0
    9.3820   -0.9600    3.2490 C   0  0  0  0  0  3  0  0  0  0  0  0
    6.2980   -6.0200   -0.1370 C   0  0  0  0  0  0  0  0  0  0  0  0
    7.1990   -5.5810   -1.1200 C   0  0  0  0  0  3  0  0  0  0  0  0
    8.2330   -4.6790   -0.8350 C   0  0  0  0  0  3  0  0  0  0  0  0
    8.3430   -4.2130    0.4810 C   0  0  0  0  0  0  0  0  0  0  0  0
    7.4620   -4.6220    1.4800 C   0  0  0  0  0  0  0  0  0  0  0  0
    6.4370   -5.5310    1.1760 C   0  0  0  0  0  3  0  0  0  0  0  0
    7.7660   -4.0230    2.6750 N   0  0  0  0  0  0  0  0  0  0  0  0
    8.7860   -3.2210    2.4380 C   0  0  0  0  0  0  0  0  0  0  0  0
    9.2160   -3.3570    1.1250 N   0  0  0  0  0  0  0  0  0  0  0  0
   10.4120   -2.7470    0.5510 C   0  0  0  0  0  3  0  0  0  0  0  0
   11.4470   -3.7800    0.0710 C   0  0  0  0  0  2  0  0  0  0  0  0
   12.7020   -3.0980   -0.4700 C   0  0  0  0  0  2  0  0  0  0  0  0
   12.3660   -2.0820   -1.5600 C   0  0  0  0  0  2  0  0  0  0  0  0
   11.3510   -1.0500   -1.0750 C   0  0  0  0  0  2  0  0  0  0  0  0
   10.0850   -1.7120   -0.5380 C   0  0  0  0  0  2  0  0  0  0  0  0
    5.5270   -8.0280   -1.1590 O   0  0  0  0  0  0  0  0  0  0  0  0
    5.1940   -7.0000   -0.4860 C   0  0  0  0  0  0  0  0  0  0  0  0
    4.0210   -6.7260   -0.0810 O   0  0  0  0  0  1  0  0  0  0  0  0
   11.2600    0.0820    6.2760 O   0  0  0  0  0  0  0  0  0  0  0  0
   11.2380    1.5090    6.2370 C   0  0  0  0  0  2  0  0  0  0  0  0
   12.4870    2.1970    5.7050 C   0  0  0  0  0  0  0  0  0  0  0  0
   12.4420    2.6730    4.3770 C   0  0  0  0  0  3  0  0  0  0  0  0
   13.5320    3.3220    3.8000 C   0  0  0  0  0  3  0  0  0  0  0  0
   14.6870    3.5220    4.5450 C   0  0  0  0  0  3  0  0  0  0  0  0
   14.7440    3.0790    5.8660 C   0  0  0  0  0  3  0  0  0  0  0  0
   13.6540    2.4210    6.4720 C   0  0  0  0  0  0  0  0  0  0  0  0
   13.8000    1.9960    7.8730 C   0  0  0  0  0  0  0  0  0  0  0  0
   14.4700    0.8020    8.1870 C   0  0  0  0  0  3  0  0  0  0  0  0
   14.6120    0.3840    9.5140 C   0  0  0  0  0  3  0  0  0  0  0  0
   14.0880    1.1650   10.5400 C   0  0  0  0  0  0  0  0  0  0  0  0
   14.2510    0.6530   12.1750 Cl  0  0  0  0  0  0  0  0  0  0  0  0
   13.4310    2.3600   10.2520 C   0  0  0  0  0  3  0  0  0  0  0  0
   13.2890    2.7730    8.9250 C   0  0  0  0  0  3  0  0  0  0  0  0
  1  2  1  0  0  0  0
  2  3  2  0  0  0  0
  4  3  1  0  0  0  0
  4 25  1  0  0  0  0
  5  4  2  0  0  0  0
  6  1  2  0  0  0  0
  6  5  1  0  0  0  0
  7 12  1  0  0  0  0
  8  9  1  0  0  0  0
  8  7  2  0  0  0  0
  9 10  2  0  0  0  0
 10 15  1  0  0  0  0
 10 11  1  0  0  0  0
 11 13  1  0  0  0  0
 12 11  2  0  0  0  0
 14 13  2  0  0  0  0
 14  1  1  0  0  0  0
 15 14  1  0  0  0  0
 16 15  1  0  0  0  0
 17 16  1  0  0  0  0
 18 17  1  0  0  0  0
 19 20  1  0  0  0  0
 19 18  1  0  0  0  0
 20 21  1  0  0  0  0
 21 16  1  0  0  0  0
 22 23  2  0  0  0  0
 23  7  1  0  0  0  0
 23 24  1  0  0  0  0
 26 25  1  0  0  0  0
 27 26  1  0  0  0  0
 27 32  1  0  0  0  0
 28 27  2  0  0  0  0
 29 28  1  0  0  0  0
 29 30  2  0  0  0  0
 30 31  1  0  0  0  0
 31 32  2  0  0  0  0
 32 33  1  0  0  0  0
 33 34  2  0  0  0  0
 33 39  1  0  0  0  0
 34 35  1  0  0  0  0
 35 36  2  0  0  0  0
 36 37  1  0  0  0  0
 38 36  1  0  0  0  0
 39 38  2  0  0  0  0
M  END
>  <minimizedAffinity>
-8.25223923

$$$$
