
 OpenBabel09122222393D

 39 44  0  0  0  0  0  0  0  0999 V2000
    6.9410   -4.0110   11.5240 C   0  0  0  0  0  0  0  0  0  0  0  0
    6.5930   -3.0520   12.4810 C   0  0  0  0  0  3  0  0  0  0  0  0
    5.2560   -2.6870   12.6550 C   0  0  0  0  0  3  0  0  0  0  0  0
    4.2520   -3.2490   11.8620 C   0  0  0  0  0  0  0  0  0  0  0  0
    4.5930   -4.2020   10.9050 C   0  0  0  0  0  3  0  0  0  0  0  0
    5.9320   -4.5740   10.7340 C   0  0  0  0  0  3  0  0  0  0  0  0
   12.4740   -6.2390   11.0120 C   0  0  0  0  0  0  0  0  0  0  0  0
   12.6140   -5.2750   10.0020 C   0  0  0  0  0  3  0  0  0  0  0  0
   11.5860   -4.3790    9.6760 C   0  0  0  0  0  3  0  0  0  0  0  0
   10.3890   -4.4770   10.3970 C   0  0  0  0  0  0  0  0  0  0  0  0
   10.2130   -5.4260   11.4010 C   0  0  0  0  0  0  0  0  0  0  0  0
   11.2560   -6.3100   11.7160 C   0  0  0  0  0  3  0  0  0  0  0  0
    8.9590   -5.3310   11.9480 N   0  0  0  0  0  0  0  0  0  0  0  0
    8.3370   -4.3760   11.2840 C   0  0  0  0  0  0  0  0  0  0  0  0
    9.1970   -3.7790   10.3720 N   0  0  0  0  0  0  0  0  0  0  0  0
    8.9050   -2.5910    9.5760 C   0  0  0  0  0  3  0  0  0  0  0  0
   10.0770   -1.5950    9.5240 C   0  0  0  0  0  2  0  0  0  0  0  0
    9.7080   -0.3450    8.7280 C   0  0  0  0  0  2  0  0  0  0  0  0
    9.1990   -0.6950    7.3320 C   0  0  0  0  0  2  0  0  0  0  0  0
    8.0260   -1.6700    7.3880 C   0  0  0  0  0  2  0  0  0  0  0  0
    8.3780   -2.9320    8.1730 C   0  0  0  0  0  2  0  0  0  0  0  0
   14.7700   -6.8630   10.9200 O   0  0  0  0  0  0  0  0  0  0  0  0
   13.6120   -7.1880   11.3370 C   0  0  0  0  0  0  0  0  0  0  0  0
   13.3280   -8.2340   11.9990 O   0  0  0  0  0  1  0  0  0  0  0  0
    3.0040   -2.7500   12.1040 O   0  0  0  0  0  0  0  0  0  0  0  0
    2.6050   -1.5320   11.4780 C   0  0  0  0  0  2  0  0  0  0  0  0
    2.8760   -1.4100    9.9860 C   0  0  0  0  0  0  0  0  0  0  0  0
    2.0310   -2.1350    9.1180 C   0  0  0  0  0  3  0  0  0  0  0  0
    2.1940   -2.0850    7.7340 C   0  0  0  0  0  3  0  0  0  0  0  0
    3.1980   -1.2970    7.1880 C   0  0  0  0  0  3  0  0  0  0  0  0
    4.0300   -0.5550    8.0260 C   0  0  0  0  0  3  0  0  0  0  0  0
    3.8830   -0.5880    9.4280 C   0  0  0  0  0  0  0  0  0  0  0  0
    4.8000    0.2330   10.2350 C   0  0  0  0  0  0  0  0  0  0  0  0
    4.3270    1.3720   10.9100 C   0  0  0  0  0  3  0  0  0  0  0  0
    5.1890    2.1630   11.6750 C   0  0  0  0  0  3  0  0  0  0  0  0
    6.5320    1.8150   11.7780 C   0  0  0  0  0  0  0  0  0  0  0  0
    7.6000    2.7900   12.7120 Cl  0  0  0  0  0  0  0  0  0  0  0  0
    7.0200    0.6830   11.1280 C   0  0  0  0  0  3  0  0  0  0  0  0
    6.1560   -0.1040   10.3620 C   0  0  0  0  0  3  0  0  0  0  0  0
  1  2  1  0  0  0  0
  2  3  2  0  0  0  0
  4 25  1  0  0  0  0
  4  3  1  0  0  0  0
  5  4  2  0  0  0  0
  6  5  1  0  0  0  0
  6  1  2  0  0  0  0
  7 23  1  0  0  0  0
  7 12  1  0  0  0  0
  8  7  2  0  0  0  0
  9  8  1  0  0  0  0
  9 10  2  0  0  0  0
 10 11  1  0  0  0  0
 11 12  2  0  0  0  0
 11 13  1  0  0  0  0
 14  1  1  0  0  0  0
 14 13  2  0  0  0  0
 15 10  1  0  0  0  0
 15 14  1  0  0  0  0
 16 15  1  0  0  0  0
 17 16  1  0  0  0  0
 18 17  1  0  0  0  0
 19 20  1  0  0  0  0
 19 18  1  0  0  0  0
 20 21  1  0  0  0  0
 21 16  1  0  0  0  0
 22 23  2  0  0  0  0
 23 24  1  0  0  0  0
 26 25  1  0  0  0  0
 27 26  1  0  0  0  0
 28 27  2  0  0  0  0
 29 28  1  0  0  0  0
 30 29  2  0  0  0  0
 30 31  1  0  0  0  0
 31 32  2  0  0  0  0
 32 27  1  0  0  0  0
 32 33  1  0  0  0  0
 33 39  2  0  0  0  0
 33 34  1  0  0  0  0
 34 35  2  0  0  0  0
 35 36  1  0  0  0  0
 36 37  1  0  0  0  0
 38 36  2  0  0  0  0
 39 38  1  0  0  0  0
M  END
>  <minimizedAffinity>
-8.24956036

$$$$
