
 OpenBabel09122222393D

 39 44  0  0  0  0  0  0  0  0999 V2000
    3.7690   -3.1010    5.3330 C   0  0  0  0  0  0  0  0  0  0  0  0
    2.4920   -2.5790    5.5630 C   0  0  0  0  0  3  0  0  0  0  0  0
    2.2910   -1.6300    6.5670 C   0  0  0  0  0  3  0  0  0  0  0  0
    3.3520   -1.2060    7.3730 C   0  0  0  0  0  0  0  0  0  0  0  0
    4.6250   -1.7230    7.1500 C   0  0  0  0  0  3  0  0  0  0  0  0
    4.8280   -2.6710    6.1400 C   0  0  0  0  0  3  0  0  0  0  0  0
    5.1380   -6.6920    0.7430 C   0  0  0  0  0  0  0  0  0  0  0  0
    4.7900   -7.7220    1.6310 C   0  0  0  0  0  3  0  0  0  0  0  0
    4.3300   -7.4640    2.9300 C   0  0  0  0  0  3  0  0  0  0  0  0
    4.2300   -6.1250    3.3290 C   0  0  0  0  0  0  0  0  0  0  0  0
    4.5730   -5.0790    2.4760 C   0  0  0  0  0  0  0  0  0  0  0  0
    5.0260   -5.3570    1.1770 C   0  0  0  0  0  3  0  0  0  0  0  0
    4.4020   -3.8680    3.0960 N   0  0  0  0  0  0  0  0  0  0  0  0
    4.0010   -4.1340    4.3230 C   0  0  0  0  0  0  0  0  0  0  0  0
    3.8160   -5.4990    4.4880 N   0  0  0  0  0  0  0  0  0  0  0  0
    3.2320   -6.1460    5.6600 C   0  0  0  0  0  3  0  0  0  0  0  0
    3.8590   -5.6770    6.9850 C   0  0  0  0  0  2  0  0  0  0  0  0
    3.2570   -6.4190    8.1770 C   0  0  0  0  0  2  0  0  0  0  0  0
    1.7350   -6.3090    8.1990 C   0  0  0  0  0  2  0  0  0  0  0  0
    1.1150   -6.7910    6.8890 C   0  0  0  0  0  2  0  0  0  0  0  0
    1.6980   -6.0530    5.6850 C   0  0  0  0  0  2  0  0  0  0  0  0
    5.3190   -8.1540   -1.1270 O   0  0  0  0  0  1  0  0  0  0  0  0
    5.6280   -7.0130   -0.6560 C   0  0  0  0  0  0  0  0  0  0  0  0
    6.3070   -6.1220   -1.2550 O   0  0  0  0  0  0  0  0  0  0  0  0
    2.9920   -0.3220    8.3500 O   0  0  0  0  0  0  0  0  0  0  0  0
    2.2760   -0.7950    9.4900 C   0  0  0  0  0  2  0  0  0  0  0  0
    2.9570   -1.8660   10.3300 C   0  0  0  0  0  0  0  0  0  0  0  0
    2.3720   -3.1510   10.3280 C   0  0  0  0  0  3  0  0  0  0  0  0
    2.9240   -4.2010   11.0600 C   0  0  0  0  0  3  0  0  0  0  0  0
    4.0800   -3.9920   11.7990 C   0  0  0  0  0  3  0  0  0  0  0  0
    4.6860   -2.7350   11.7980 C   0  0  0  0  0  3  0  0  0  0  0  0
    4.1480   -1.6580   11.0630 C   0  0  0  0  0  0  0  0  0  0  0  0
    4.8580   -0.3700   11.1120 C   0  0  0  0  0  0  0  0  0  0  0  0
    5.9740   -0.1420   10.2890 C   0  0  0  0  0  3  0  0  0  0  0  0
    6.6600    1.0760   10.3290 C   0  0  0  0  0  3  0  0  0  0  0  0
    6.2280    2.0790   11.1910 C   0  0  0  0  0  0  0  0  0  0  0  0
    7.0730    3.5770   11.2520 Cl  0  0  0  0  0  0  0  0  0  0  0  0
    5.1160    1.8800   12.0070 C   0  0  0  0  0  3  0  0  0  0  0  0
    4.4340    0.6610   11.9650 C   0  0  0  0  0  3  0  0  0  0  0  0
  1  2  2  0  0  0  0
  1  6  1  0  0  0  0
  2  3  1  0  0  0  0
  3  4  2  0  0  0  0
  4 25  1  0  0  0  0
  5  4  1  0  0  0  0
  6  5  2  0  0  0  0
  7 12  2  0  0  0  0
  7  8  1  0  0  0  0
  8  9  2  0  0  0  0
  9 10  1  0  0  0  0
 10 15  1  0  0  0  0
 11 13  1  0  0  0  0
 11 10  2  0  0  0  0
 12 11  1  0  0  0  0
 13 14  2  0  0  0  0
 14 15  1  0  0  0  0
 14  1  1  0  0  0  0
 15 16  1  0  0  0  0
 16 21  1  0  0  0  0
 16 17  1  0  0  0  0
 17 18  1  0  0  0  0
 18 19  1  0  0  0  0
 20 19  1  0  0  0  0
 21 20  1  0  0  0  0
 22 23  1  0  0  0  0
 23  7  1  0  0  0  0
 24 23  2  0  0  0  0
 25 26  1  0  0  0  0
 26 27  1  0  0  0  0
 27 32  1  0  0  0  0
 28 27  2  0  0  0  0
 28 29  1  0  0  0  0
 29 30  2  0  0  0  0
 31 30  1  0  0  0  0
 32 33  1  0  0  0  0
 32 31  2  0  0  0  0
 33 39  1  0  0  0  0
 34 35  1  0  0  0  0
 34 33  2  0  0  0  0
 35 36  2  0  0  0  0
 36 37  1  0  0  0  0
 36 38  1  0  0  0  0
 39 38  2  0  0  0  0
M  END
>  <minimizedAffinity>
-8.4668169

$$$$
