
 OpenBabel09122222393D

 39 44  0  0  0  0  0  0  0  0999 V2000
    9.4900   -2.3690    3.4260 C   0  0  0  0  0  0  0  0  0  0  0  0
    9.3660   -0.9790    3.3370 C   0  0  0  0  0  3  0  0  0  0  0  0
    9.9150   -0.1610    4.3260 C   0  0  0  0  0  3  0  0  0  0  0  0
   10.5700   -0.7140    5.4300 C   0  0  0  0  0  0  0  0  0  0  0  0
   10.6940   -2.0980    5.5260 C   0  0  0  0  0  3  0  0  0  0  0  0
   10.1490   -2.9190    4.5310 C   0  0  0  0  0  3  0  0  0  0  0  0
    6.3370   -6.0850   -0.0510 C   0  0  0  0  0  0  0  0  0  0  0  0
    7.2010   -5.6390   -1.0640 C   0  0  0  0  0  3  0  0  0  0  0  0
    8.2340   -4.7260   -0.8160 C   0  0  0  0  0  3  0  0  0  0  0  0
    8.3830   -4.2560    0.4950 C   0  0  0  0  0  0  0  0  0  0  0  0
    7.5400   -4.6720    1.5230 C   0  0  0  0  0  0  0  0  0  0  0  0
    6.5140   -5.5920    1.2560 C   0  0  0  0  0  3  0  0  0  0  0  0
    7.8780   -4.0660    2.7060 N   0  0  0  0  0  0  0  0  0  0  0  0
    8.8810   -3.2540    2.4330 C   0  0  0  0  0  0  0  0  0  0  0  0
    9.2680   -3.3900    1.1070 N   0  0  0  0  0  0  0  0  0  0  0  0
   10.4380   -2.7690    0.4920 C   0  0  0  0  0  3  0  0  0  0  0  0
   11.4990   -3.7900    0.0450 C   0  0  0  0  0  2  0  0  0  0  0  0
   12.7260   -3.0940   -0.5410 C   0  0  0  0  0  2  0  0  0  0  0  0
   12.3470   -2.1380   -1.6690 C   0  0  0  0  0  2  0  0  0  0  0  0
   11.3060   -1.1160   -1.2170 C   0  0  0  0  0  2  0  0  0  0  0  0
   10.0670   -1.7930   -0.6360 C   0  0  0  0  0  2  0  0  0  0  0  0
    5.4700   -7.9420   -1.2640 O   0  0  0  0  0  0  0  0  0  0  0  0
    5.2320   -7.0770   -0.3610 C   0  0  0  0  0  0  0  0  0  0  0  0
    4.1530   -6.9740    0.3020 O   0  0  0  0  0  1  0  0  0  0  0  0
   11.0000    0.2060    6.3430 O   0  0  0  0  0  0  0  0  0  0  0  0
   10.1970    0.4800    7.4910 C   0  0  0  0  0  2  0  0  0  0  0  0
   10.3510   -0.4650    8.6740 C   0  0  0  0  0  0  0  0  0  0  0  0
   11.5580   -0.3870    9.4040 C   0  0  0  0  0  3  0  0  0  0  0  0
   11.7920   -1.2050   10.5080 C   0  0  0  0  0  3  0  0  0  0  0  0
   10.8210   -2.1100   10.9140 C   0  0  0  0  0  3  0  0  0  0  0  0
    9.6130   -2.1870   10.2190 C   0  0  0  0  0  3  0  0  0  0  0  0
    9.3510   -1.3690    9.1010 C   0  0  0  0  0  0  0  0  0  0  0  0
    8.0470   -1.5120    8.4350 C   0  0  0  0  0  0  0  0  0  0  0  0
    7.8510   -2.5070    7.4620 C   0  0  0  0  0  3  0  0  0  0  0  0
    6.6190   -2.6510    6.8180 C   0  0  0  0  0  3  0  0  0  0  0  0
    5.5680   -1.8020    7.1500 C   0  0  0  0  0  0  0  0  0  0  0  0
    4.0500   -1.9680    6.3550 Cl  0  0  0  0  0  0  0  0  0  0  0  0
    5.7350   -0.8160    8.1200 C   0  0  0  0  0  3  0  0  0  0  0  0
    6.9690   -0.6740    8.7610 C   0  0  0  0  0  3  0  0  0  0  0  0
  1  6  1  0  0  0  0
  2  1  2  0  0  0  0
  2  3  1  0  0  0  0
  3  4  2  0  0  0  0
  4  5  1  0  0  0  0
  4 25  1  0  0  0  0
  6  5  2  0  0  0  0
  7 12  1  0  0  0  0
  8  9  1  0  0  0  0
  8  7  2  0  0  0  0
  9 10  2  0  0  0  0
 10 15  1  0  0  0  0
 10 11  1  0  0  0  0
 11 13  1  0  0  0  0
 12 11  2  0  0  0  0
 14 13  2  0  0  0  0
 14  1  1  0  0  0  0
 15 14  1  0  0  0  0
 16 15  1  0  0  0  0
 17 16  1  0  0  0  0
 18 17  1  0  0  0  0
 19 20  1  0  0  0  0
 19 18  1  0  0  0  0
 20 21  1  0  0  0  0
 21 16  1  0  0  0  0
 22 23  2  0  0  0  0
 23  7  1  0  0  0  0
 23 24  1  0  0  0  0
 25 26  1  0  0  0  0
 26 27  1  0  0  0  0
 27 32  2  0  0  0  0
 27 28  1  0  0  0  0
 28 29  2  0  0  0  0
 29 30  1  0  0  0  0
 31 30  2  0  0  0  0
 32 31  1  0  0  0  0
 33 39  1  0  0  0  0
 33 32  1  0  0  0  0
 34 33  2  0  0  0  0
 35 36  2  0  0  0  0
 35 34  1  0  0  0  0
 36 38  1  0  0  0  0
 37 36  1  0  0  0  0
 38 39  2  0  0  0  0
M  END
>  <minimizedAffinity>
-8.68321896

$$$$
