
 OpenBabel09122222393D

 39 44  0  0  0  0  0  0  0  0999 V2000
    3.7620   -3.2090    5.6020 C   0  0  0  0  0  0  0  0  0  0  0  0
    4.8340   -2.7730    6.3880 C   0  0  0  0  0  3  0  0  0  0  0  0
    4.6300   -1.8150    7.3830 C   0  0  0  0  0  3  0  0  0  0  0  0
    3.3650   -1.2600    7.5940 C   0  0  0  0  0  0  0  0  0  0  0  0
    2.2940   -1.6890    6.8140 C   0  0  0  0  0  3  0  0  0  0  0  0
    2.4970   -2.6540    5.8180 C   0  0  0  0  0  3  0  0  0  0  0  0
    5.0770   -6.5360    0.8020 C   0  0  0  0  0  0  0  0  0  0  0  0
    4.5380   -7.5870    1.5610 C   0  0  0  0  0  3  0  0  0  0  0  0
    4.0060   -7.3870    2.8420 C   0  0  0  0  0  3  0  0  0  0  0  0
    4.0310   -6.0850    3.3580 C   0  0  0  0  0  0  0  0  0  0  0  0
    4.5630   -5.0200    2.6350 C   0  0  0  0  0  0  0  0  0  0  0  0
    5.0860   -5.2400    1.3510 C   0  0  0  0  0  3  0  0  0  0  0  0
    4.4840   -3.8550    3.3530 N   0  0  0  0  0  0  0  0  0  0  0  0
    3.9540   -4.1730    4.5180 C   0  0  0  0  0  0  0  0  0  0  0  0
    3.5980   -5.5140    4.5390 N   0  0  0  0  0  0  0  0  0  0  0  0
    2.8470   -6.1820    5.6000 C   0  0  0  0  0  3  0  0  0  0  0  0
    1.3620   -6.3830    5.2530 C   0  0  0  0  0  2  0  0  0  0  0  0
    0.6060   -7.0330    6.4110 C   0  0  0  0  0  2  0  0  0  0  0  0
    1.2680   -8.3360    6.8550 C   0  0  0  0  0  2  0  0  0  0  0  0
    2.7370   -8.1280    7.2130 C   0  0  0  0  0  2  0  0  0  0  0  0
    3.5120   -7.4870    6.0640 C   0  0  0  0  0  2  0  0  0  0  0  0
    5.3520   -7.9110   -1.1230 O   0  0  0  0  0  0  0  0  0  0  0  0
    5.6390   -6.7950   -0.5830 C   0  0  0  0  0  0  0  0  0  0  0  0
    6.3530   -5.8810   -1.1020 O   0  0  0  0  0  1  0  0  0  0  0  0
    3.3320   -0.2940    8.5590 O   0  0  0  0  0  0  0  0  0  0  0  0
    2.9760   -0.6530    9.8930 C   0  0  0  0  0  2  0  0  0  0  0  0
    4.0800   -1.2380   10.7610 C   0  0  0  0  0  0  0  0  0  0  0  0
    5.1030   -0.3570   11.1800 C   0  0  0  0  0  3  0  0  0  0  0  0
    6.1550   -0.7960   11.9820 C   0  0  0  0  0  3  0  0  0  0  0  0
    6.2010   -2.1200   12.3940 C   0  0  0  0  0  3  0  0  0  0  0  0
    5.1900   -3.0010   12.0100 C   0  0  0  0  0  3  0  0  0  0  0  0
    4.1140   -2.5810   11.2010 C   0  0  0  0  0  0  0  0  0  0  0  0
    3.0880   -3.5760   10.8520 C   0  0  0  0  0  0  0  0  0  0  0  0
    2.0290   -3.8460   11.7350 C   0  0  0  0  0  3  0  0  0  0  0  0
    1.0500   -4.7920   11.4170 C   0  0  0  0  0  3  0  0  0  0  0  0
    1.1200   -5.4720   10.2050 C   0  0  0  0  0  0  0  0  0  0  0  0
   -0.0770   -6.6440    9.8110 Cl  0  0  0  0  0  0  0  0  0  0  0  0
    2.1540   -5.2110    9.3080 C   0  0  0  0  0  3  0  0  0  0  0  0
    3.1310   -4.2660    9.6300 C   0  0  0  0  0  3  0  0  0  0  0  0
  1  6  2  0  0  0  0
  1  2  1  0  0  0  0
  2  3  2  0  0  0  0
  3  4  1  0  0  0  0
  4 25  1  0  0  0  0
  5  4  2  0  0  0  0
  6  5  1  0  0  0  0
  7 12  2  0  0  0  0
  7  8  1  0  0  0  0
  8  9  2  0  0  0  0
  9 10  1  0  0  0  0
 10 15  1  0  0  0  0
 11 13  1  0  0  0  0
 11 10  2  0  0  0  0
 12 11  1  0  0  0  0
 13 14  2  0  0  0  0
 14 15  1  0  0  0  0
 14  1  1  0  0  0  0
 15 16  1  0  0  0  0
 16 21  1  0  0  0  0
 17 16  1  0  0  0  0
 17 18  1  0  0  0  0
 18 19  1  0  0  0  0
 19 20  1  0  0  0  0
 21 20  1  0  0  0  0
 22 23  2  0  0  0  0
 23  7  1  0  0  0  0
 24 23  1  0  0  0  0
 25 26  1  0  0  0  0
 26 27  1  0  0  0  0
 27 28  2  0  0  0  0
 27 32  1  0  0  0  0
 28 29  1  0  0  0  0
 29 30  2  0  0  0  0
 31 30  1  0  0  0  0
 32 31  2  0  0  0  0
 33 32  1  0  0  0  0
 33 34  1  0  0  0  0
 35 34  2  0  0  0  0
 36 35  1  0  0  0  0
 37 36  1  0  0  0  0
 38 39  1  0  0  0  0
 38 36  2  0  0  0  0
 39 33  2  0  0  0  0
M  END
>  <minimizedAffinity>
-8.5660181

$$$$
