
 OpenBabel09132204463D

 35 38  0  0  0  0  0  0  0  0999 V2000
    6.2990   -4.3690    3.0460 N   0  0  0  0  0  0  0  0  0  0  0  0
    5.9320   -5.6340    2.6060 C   0  0  0  0  0  0  0  0  0  0  0  0
    4.5380   -5.6900    2.6170 C   0  0  0  0  0  0  0  0  0  0  0  0
    4.0710   -4.3810    2.9820 C   0  0  0  0  0  0  0  0  0  0  0  0
    2.7850   -3.8170    3.1500 C   0  0  0  0  0  3  0  0  0  0  0  0
    2.6240   -2.4530    3.4570 C   0  0  0  0  0  0  0  0  0  0  0  0
    3.7650   -1.6510    3.5450 C   0  0  0  0  0  3  0  0  0  0  0  0
    5.0490   -2.1790    3.3790 C   0  0  0  0  0  3  0  0  0  0  0  0
    5.1850   -3.5570    3.1440 C   0  0  0  0  0  0  0  0  0  0  0  0
    6.9040   -6.6480    2.1960 C   0  0  0  0  0  0  0  0  0  0  0  0
    7.8080   -6.4000    1.1600 C   0  0  0  0  0  3  0  0  0  0  0  0
    8.7260   -7.3800    0.7740 C   0  0  0  0  0  3  0  0  0  0  0  0
    8.7470   -8.6110    1.4270 C   0  0  0  0  0  3  0  0  0  0  0  0
    7.8500   -8.8660    2.4630 C   0  0  0  0  0  3  0  0  0  0  0  0
    6.9290   -7.8880    2.8440 C   0  0  0  0  0  3  0  0  0  0  0  0
    3.6180   -6.8390    2.2500 C   0  0  0  0  0  3  0  0  0  0  0  0
    4.0150   -7.5000    0.9200 C   0  0  0  0  0  2  0  0  0  0  0  0
    3.0220   -8.5910    0.5190 C   0  0  0  0  0  2  0  0  0  0  0  0
    2.8410   -9.6240    1.6280 C   0  0  0  0  0  2  0  0  0  0  0  0
    2.4480   -8.9700    2.9500 C   0  0  0  0  0  2  0  0  0  0  0  0
    3.4460   -7.8870    3.3590 C   0  0  0  0  0  2  0  0  0  0  0  0
    1.2430   -1.8660    3.6780 C   0  0  0  0  0  0  0  0  0  0  0  0
    1.1540   -0.6000    3.7550 O   0  0  0  0  0  0  0  0  0  0  0  0
    0.2730   -2.6850    3.7550 O   0  0  0  0  0  1  0  0  0  0  0  0
    7.6660   -3.9360    3.3300 C   0  0  0  0  0  2  0  0  0  0  0  0
    9.7720   -3.1800    2.1550 N   0  0  0  0  0  0  0  0  0  0  0  0
   10.4700   -2.8330    3.3830 C   0  0  0  0  0  1  0  0  0  0  0  0
    8.4130   -3.4690    2.0830 C   0  0  0  0  0  0  0  0  0  0  0  0
    7.8070   -3.3440    1.0150 O   0  0  0  0  0  0  0  0  0  0  0  0
   10.4810   -2.9490    0.8900 C   0  0  0  0  0  2  0  0  0  0  0  0
    9.5470    0.7100    0.0470 C   0  0  0  0  0  1  0  0  0  0  0  0
    9.7160   -0.5320    0.7810 N   0  0  0  0  0  0  0  0  0  0  0  0
    9.4150   -0.4770    2.2010 C   0  0  0  0  0  1  0  0  0  0  0  0
   10.1250   -1.6700    0.1000 C   0  0  0  0  0  0  0  0  0  0  0  0
   10.0650   -1.7230   -1.1350 O   0  0  0  0  0  0  0  0  0  0  0  0
  1  9  1  0  0  0  0
  1 25  1  0  0  0  0
  2  3  2  0  0  0  0
  2  1  1  0  0  0  0
  3  4  1  0  0  0  0
  4  9  2  0  0  0  0
  4  5  1  0  0  0  0
  5  6  2  0  0  0  0
  6  7  1  0  0  0  0
  6 22  1  0  0  0  0
  8  7  2  0  0  0  0
  9  8  1  0  0  0  0
 10  2  1  0  0  0  0
 10 15  1  0  0  0  0
 11 10  2  0  0  0  0
 12 11  1  0  0  0  0
 12 13  2  0  0  0  0
 13 14  1  0  0  0  0
 14 15  2  0  0  0  0
 16  3  1  0  0  0  0
 16 21  1  0  0  0  0
 17 16  1  0  0  0  0
 18 17  1  0  0  0  0
 18 19  1  0  0  0  0
 19 20  1  0  0  0  0
 20 21  1  0  0  0  0
 22 23  2  0  0  0  0
 22 24  1  0  0  0  0
 26 27  1  0  0  0  0
 28 26  1  0  0  0  0
 28 25  1  0  0  0  0
 29 28  2  0  0  0  0
 30 26  1  0  0  0  0
 31 32  1  0  0  0  0
 32 33  1  0  0  0  0
 34 32  1  0  0  0  0
 34 30  1  0  0  0  0
 35 34  2  0  0  0  0
M  END
>  <minimizedAffinity>
12.0574903

$$$$
