
 OpenBabel09122222393D

 22 23  0  0  1  0  0  0  0  0999 V2000
    4.6550   -5.1670    3.3040 S   0  0  0  0  0  0  0  0  0  0  0  0
    3.4980   -5.6390    2.5760 O   0  0  0  0  0  0  0  0  0  0  0  0
    5.5000   -6.1420    3.9780 O   0  0  0  0  0  0  0  0  0  0  0  0
    4.2200   -3.9800    4.5400 C   0  0  0  0  0  0  0  0  0  0  0  0
    3.0360   -3.2620    4.3320 C   0  0  0  0  0  3  0  0  0  0  0  0
    2.6510   -2.2690    5.2330 C   0  0  0  0  0  0  0  0  0  0  0  0
    1.1790   -1.4220    4.8860 Cl  0  0  0  0  0  0  0  0  0  0  0  0
    3.4540   -1.9670    6.3430 C   0  0  0  0  0  0  0  0  0  0  0  0
    2.9840   -0.6940    7.4350 Cl  0  0  0  0  0  0  0  0  0  0  0  0
    4.6460   -2.6840    6.5470 C   0  0  0  0  0  0  0  0  0  0  0  0
    5.6820   -2.3250    7.9000 Cl  0  0  0  0  0  0  0  0  0  0  0  0
    5.0230   -3.6970    5.6480 C   0  0  0  0  0  0  0  0  0  0  0  0
    6.1550   -4.4190    5.9190 O   0  0  0  0  0  0  0  0  0  0  0  0
    5.8660   -5.3740    6.0050 H   0  0  0  0  0  0  0  0  0  0  0  0
    6.1770   -5.0720    0.9620 C   0  0  2  0  0  3  0  0  0  0  0  0
    7.6510   -5.3290    1.2460 C   0  0  0  0  0  2  0  0  0  0  0  0
    8.0610   -4.0480    1.9430 C   0  0  0  0  0  2  0  0  0  0  0  0
    6.8930   -3.7780    2.8810 C   0  0  0  0  0  2  0  0  0  0  0  0
    5.6830   -4.3450    2.2060 N   0  0  0  0  0  0  0  0  0  0  0  0
    4.4750   -6.1120   -0.3560 O   0  0  0  0  0  0  0  0  0  0  0  0
    5.4230   -6.3120    0.4570 C   0  0  0  0  0  0  0  0  0  0  0  0
    5.9170   -7.4190    0.8170 O   0  0  0  0  0  1  0  0  0  0  0  0
  1  3  2  0  0  0  0
  1  4  1  0  0  0  0
  2  1  2  0  0  0  0
  4 12  1  0  0  0  0
  5  4  2  0  0  0  0
  5  6  1  0  0  0  0
  6  8  2  0  0  0  0
  7  6  1  0  0  0  0
  8 10  1  0  0  0  0
  8  9  1  0  0  0  0
 10 11  1  0  0  0  0
 12 13  1  0  0  0  0
 12 10  2  0  0  0  0
 13 14  1  0  0  0  0
 15 21  1  1  0  0  0
 15 16  1  0  0  0  0
 15 19  1  0  0  0  0
 16 17  1  0  0  0  0
 17 18  1  0  0  0  0
 19 18  1  0  0  0  0
 19  1  1  0  0  0  0
 20 21  2  0  0  0  0
 21 22  1  0  0  0  0
M  END
>  <minimizedAffinity>
-4.62715626

$$$$
