
 OpenBabel09122219403D

 22 23  0  0  1  0  0  0  0  0999 V2000
    4.0030   -4.7930    4.6350 S   0  0  0  0  0  0  0  0  0  0  0  0
    4.8130   -5.1210    5.7870 O   0  0  0  0  0  0  0  0  0  0  0  0
    2.7410   -5.4940    4.4470 O   0  0  0  0  0  0  0  0  0  0  0  0
    4.8920   -5.0030    3.1200 C   0  0  0  0  0  0  0  0  0  0  0  0
    4.3010   -5.8260    2.1540 C   0  0  0  0  0  3  0  0  0  0  0  0
    4.9640   -6.0860    0.9550 C   0  0  0  0  0  0  0  0  0  0  0  0
    4.1630   -7.1270   -0.1760 Cl  0  0  0  0  0  0  0  0  0  0  0  0
    6.2350   -5.5430    0.7130 C   0  0  0  0  0  0  0  0  0  0  0  0
    7.0700   -5.9120   -0.7690 Cl  0  0  0  0  0  0  0  0  0  0  0  0
    6.8310   -4.7230    1.6880 C   0  0  0  0  0  0  0  0  0  0  0  0
    8.4160   -4.0470    1.4360 Cl  0  0  0  0  0  0  0  0  0  0  0  0
    6.1530   -4.4470    2.8880 C   0  0  0  0  0  0  0  0  0  0  0  0
    6.7360   -3.5880    3.7810 O   0  0  0  0  0  0  0  0  0  0  0  0
    6.0970   -2.8250    3.8970 H   0  0  0  0  0  0  0  0  0  0  0  0
    4.0530   -2.3110    5.9170 C   0  0  2  0  0  3  0  0  0  0  0  0
    2.7700   -2.0630    6.6990 C   0  0  0  0  0  2  0  0  0  0  0  0
    1.7700   -1.8260    5.5860 C   0  0  0  0  0  2  0  0  0  0  0  0
    2.1290   -2.8960    4.5660 C   0  0  0  0  0  2  0  0  0  0  0  0
    3.6000   -3.1290    4.7150 N   0  0  0  0  0  0  0  0  0  0  0  0
    6.3840   -2.5700    6.3770 O   0  0  0  0  0  0  0  0  0  0  0  0
    5.2130   -2.8180    6.7870 C   0  0  0  0  0  0  0  0  0  0  0  0
    4.8700   -3.3240    7.8930 O   0  0  0  0  0  1  0  0  0  0  0  0
  1 19  1  0  0  0  0
  1  2  2  0  0  0  0
  3  1  2  0  0  0  0
  4  1  1  0  0  0  0
  5  4  2  0  0  0  0
  6  5  1  0  0  0  0
  7  6  1  0  0  0  0
  8  6  2  0  0  0  0
  8 10  1  0  0  0  0
  9  8  1  0  0  0  0
 10 12  2  0  0  0  0
 11 10  1  0  0  0  0
 12  4  1  0  0  0  0
 12 13  1  0  0  0  0
 13 14  1  0  0  0  0
 15 16  1  0  0  0  0
 15 21  1  1  0  0  0
 17 16  1  0  0  0  0
 18 19  1  0  0  0  0
 18 17  1  0  0  0  0
 19 15  1  0  0  0  0
 20 21  2  0  0  0  0
 21 22  1  0  0  0  0
M  END
>  <minimizedAffinity>
-5.89933538

$$$$

 OpenBabel09122219403D

 22 23  0  0  1  0  0  0  0  0999 V2000
    4.0150   -4.7620    4.7500 S   0  0  0  0  0  0  0  0  0  0  0  0
    4.3160   -5.5790    5.9050 O   0  0  0  0  0  0  0  0  0  0  0  0
    2.7030   -4.8850    4.1330 O   0  0  0  0  0  0  0  0  0  0  0  0
    5.1810   -5.0090    3.4430 C   0  0  0  0  0  0  0  0  0  0  0  0
    6.2140   -4.0700    3.3370 C   0  0  0  0  0  3  0  0  0  0  0  0
    7.1410   -4.1640    2.3000 C   0  0  0  0  0  0  0  0  0  0  0  0
    8.3760   -2.9480    2.2380 Cl  0  0  0  0  0  0  0  0  0  0  0  0
    7.0390   -5.1860    1.3440 C   0  0  0  0  0  0  0  0  0  0  0  0
    8.1780   -5.2640    0.0300 Cl  0  0  0  0  0  0  0  0  0  0  0  0
    5.9960   -6.1240    1.4490 C   0  0  0  0  0  0  0  0  0  0  0  0
    5.8200   -7.3950    0.2710 Cl  0  0  0  0  0  0  0  0  0  0  0  0
    5.0730   -6.0390    2.5050 C   0  0  0  0  0  0  0  0  0  0  0  0
    4.1150   -7.0120    2.6110 O   0  0  0  0  0  0  0  0  0  0  0  0
    4.2500   -7.4440    3.5040 H   0  0  0  0  0  0  0  0  0  0  0  0
    5.0400   -2.7440    6.3900 C   0  0  2  0  0  3  0  0  0  0  0  0
    4.0470   -2.3530    7.4760 C   0  0  0  0  0  2  0  0  0  0  0  0
    2.9930   -1.6100    6.6800 C   0  0  0  0  0  2  0  0  0  0  0  0
    2.8290   -2.4740    5.4380 C   0  0  0  0  0  2  0  0  0  0  0  0
    4.1610   -3.1150    5.2030 N   0  0  0  0  0  0  0  0  0  0  0  0
    7.2360   -3.6820    6.2750 O   0  0  0  0  0  0  0  0  0  0  0  0
    6.1200   -3.7250    6.8700 C   0  0  0  0  0  0  0  0  0  0  0  0
    5.8160   -4.3910    7.9010 O   0  0  0  0  0  1  0  0  0  0  0  0
  1 19  1  0  0  0  0
  1  2  2  0  0  0  0
  3  1  2  0  0  0  0
  4  1  1  0  0  0  0
  5  4  1  0  0  0  0
  6  5  2  0  0  0  0
  7  6  1  0  0  0  0
  8 10  2  0  0  0  0
  8  6  1  0  0  0  0
  9  8  1  0  0  0  0
 10 12  1  0  0  0  0
 11 10  1  0  0  0  0
 12 13  1  0  0  0  0
 12  4  2  0  0  0  0
 13 14  1  0  0  0  0
 15 21  1  1  0  0  0
 15 16  1  0  0  0  0
 17 16  1  0  0  0  0
 18 17  1  0  0  0  0
 19 18  1  0  0  0  0
 19 15  1  0  0  0  0
 20 21  2  0  0  0  0
 21 22  1  0  0  0  0
M  END
>  <minimizedAffinity>
-5.6782856

$$$$

 OpenBabel09122219403D

 22 23  0  0  1  0  0  0  0  0999 V2000
    4.1020   -5.7060    4.3640 S   0  0  0  0  0  0  0  0  0  0  0  0
    3.9300   -7.0490    4.8730 O   0  0  0  0  0  0  0  0  0  0  0  0
    2.9190   -4.9450    3.9910 O   0  0  0  0  0  0  0  0  0  0  0  0
    5.1580   -5.6680    2.9450 C   0  0  0  0  0  0  0  0  0  0  0  0
    6.2220   -4.7590    2.9800 C   0  0  0  0  0  3  0  0  0  0  0  0
    7.0680   -4.6280    1.8780 C   0  0  0  0  0  0  0  0  0  0  0  0
    8.3490   -3.4680    2.0040 Cl  0  0  0  0  0  0  0  0  0  0  0  0
    6.8500   -5.3910    0.7200 C   0  0  0  0  0  0  0  0  0  0  0  0
    7.8860   -5.1850   -0.6640 Cl  0  0  0  0  0  0  0  0  0  0  0  0
    5.7760   -6.2980    0.6850 C   0  0  0  0  0  0  0  0  0  0  0  0
    5.4570   -7.2470   -0.7400 Cl  0  0  0  0  0  0  0  0  0  0  0  0
    4.9360   -6.4410    1.8030 C   0  0  0  0  0  0  0  0  0  0  0  0
    3.9440   -7.3850    1.7540 O   0  0  0  0  0  0  0  0  0  0  0  0
    4.1240   -8.0210    2.5080 H   0  0  0  0  0  0  0  0  0  0  0  0
    4.4410   -4.8840    7.0130 C   0  0  2  0  0  3  0  0  0  0  0  0
    3.7330   -3.5630    7.2800 C   0  0  0  0  0  2  0  0  0  0  0  0
    4.6090   -2.5830    6.5280 C   0  0  0  0  0  2  0  0  0  0  0  0
    4.9060   -3.3140    5.2270 C   0  0  0  0  0  2  0  0  0  0  0  0
    4.8950   -4.7730    5.5630 N   0  0  0  0  0  0  0  0  0  0  0  0
    4.3040   -7.1100    7.8730 O   0  0  0  0  0  1  0  0  0  0  0  0
    3.6390   -6.1130    7.4660 C   0  0  0  0  0  0  0  0  0  0  0  0
    2.3860   -5.9510    7.4990 O   0  0  0  0  0  0  0  0  0  0  0  0
  1  2  2  0  0  0  0
  1 19  1  0  0  0  0
  3  1  2  0  0  0  0
  4  5  1  0  0  0  0
  4  1  1  0  0  0  0
  6  7  1  0  0  0  0
  6  5  2  0  0  0  0
  8  6  1  0  0  0  0
  9  8  1  0  0  0  0
 10  8  2  0  0  0  0
 10 12  1  0  0  0  0
 11 10  1  0  0  0  0
 12  4  2  0  0  0  0
 13 12  1  0  0  0  0
 13 14  1  0  0  0  0
 15 16  1  0  0  0  0
 15 21  1  6  0  0  0
 17 16  1  0  0  0  0
 18 19  1  0  0  0  0
 18 17  1  0  0  0  0
 19 15  1  0  0  0  0
 21 22  2  0  0  0  0
 21 20  1  0  0  0  0
M  END
>  <minimizedAffinity>
-5.20248127

$$$$

 OpenBabel09122219403D

 22 23  0  0  1  0  0  0  0  0999 V2000
    4.2800   -4.2180    4.6620 S   0  0  0  0  0  0  0  0  0  0  0  0
    3.2820   -5.2500    4.8350 O   0  0  0  0  0  0  0  0  0  0  0  0
    3.8370   -2.8630    4.3720 O   0  0  0  0  0  0  0  0  0  0  0  0
    5.4370   -4.6230    3.3880 C   0  0  0  0  0  0  0  0  0  0  0  0
    6.5220   -3.7530    3.2250 C   0  0  0  0  0  3  0  0  0  0  0  0
    7.4490   -3.9720    2.2060 C   0  0  0  0  0  0  0  0  0  0  0  0
    8.7500   -2.8350    2.0700 Cl  0  0  0  0  0  0  0  0  0  0  0  0
    7.2950   -5.0530    1.3250 C   0  0  0  0  0  0  0  0  0  0  0  0
    8.4340   -5.2890    0.0300 Cl  0  0  0  0  0  0  0  0  0  0  0  0
    6.2000   -5.9220    1.4860 C   0  0  0  0  0  0  0  0  0  0  0  0
    5.9600   -7.2620    0.4000 Cl  0  0  0  0  0  0  0  0  0  0  0  0
    5.2780   -5.7100    2.5240 C   0  0  0  0  0  0  0  0  0  0  0  0
    4.2650   -6.6180    2.6900 O   0  0  0  0  0  0  0  0  0  0  0  0
    4.3710   -6.9920    3.6130 H   0  0  0  0  0  0  0  0  0  0  0  0
    4.5280   -3.5810    7.3720 C   0  0  2  0  0  3  0  0  0  0  0  0
    5.1390   -2.2000    7.5650 C   0  0  0  0  0  2  0  0  0  0  0  0
    6.5800   -2.4390    7.1620 C   0  0  0  0  0  2  0  0  0  0  0  0
    6.4490   -3.3120    5.9220 C   0  0  0  0  0  2  0  0  0  0  0  0
    5.1950   -4.1070    6.1080 N   0  0  0  0  0  0  0  0  0  0  0  0
    2.4630   -4.6740    7.8800 O   0  0  0  0  0  1  0  0  0  0  0  0
    2.9960   -3.5960    7.4850 C   0  0  0  0  0  0  0  0  0  0  0  0
    2.4350   -2.4800    7.2880 O   0  0  0  0  0  0  0  0  0  0  0  0
  1  2  2  0  0  0  0
  1 19  1  0  0  0  0
  3  1  2  0  0  0  0
  4  1  1  0  0  0  0
  5  4  1  0  0  0  0
  6  5  2  0  0  0  0
  7  6  1  0  0  0  0
  8 10  2  0  0  0  0
  8  6  1  0  0  0  0
  9  8  1  0  0  0  0
 10 12  1  0  0  0  0
 11 10  1  0  0  0  0
 12 13  1  0  0  0  0
 12  4  2  0  0  0  0
 13 14  1  0  0  0  0
 15 21  1  6  0  0  0
 15 16  1  0  0  0  0
 17 16  1  0  0  0  0
 18 19  1  0  0  0  0
 18 17  1  0  0  0  0
 19 15  1  0  0  0  0
 21 20  1  0  0  0  0
 22 21  2  0  0  0  0
M  END
>  <minimizedAffinity>
-4.84342289

$$$$

 OpenBabel09122219403D

 22 23  0  0  1  0  0  0  0  0999 V2000
    4.8850   -6.5260    2.5810 S   0  0  0  0  0  0  0  0  0  0  0  0
    3.8470   -7.0830    1.7420 O   0  0  0  0  0  0  0  0  0  0  0  0
    5.9470   -7.4030    3.0500 O   0  0  0  0  0  0  0  0  0  0  0  0
    4.2230   -5.7620    4.0320 C   0  0  0  0  0  0  0  0  0  0  0  0
    4.1580   -6.5550    5.1840 C   0  0  0  0  0  3  0  0  0  0  0  0
    3.5980   -6.0440    6.3550 C   0  0  0  0  0  0  0  0  0  0  0  0
    3.5450   -7.1010    7.7280 Cl  0  0  0  0  0  0  0  0  0  0  0  0
    3.0790   -4.7400    6.3850 C   0  0  0  0  0  0  0  0  0  0  0  0
    2.3430   -4.1310    7.8400 Cl  0  0  0  0  0  0  0  0  0  0  0  0
    3.1390   -3.9480    5.2240 C   0  0  0  0  0  0  0  0  0  0  0  0
    2.4870   -2.3330    5.2130 Cl  0  0  0  0  0  0  0  0  0  0  0  0
    3.7200   -4.4590    4.0510 C   0  0  0  0  0  0  0  0  0  0  0  0
    3.8220   -3.6320    2.9640 O   0  0  0  0  0  0  0  0  0  0  0  0
    4.7990   -3.5650    2.7510 H   0  0  0  0  0  0  0  0  0  0  0  0
    5.9000   -5.4420    0.2130 C   0  0  2  0  0  3  0  0  0  0  0  0
    7.4000   -5.6720    0.0950 C   0  0  0  0  0  2  0  0  0  0  0  0
    7.9440   -4.7190    1.1390 C   0  0  0  0  0  2  0  0  0  0  0  0
    6.9910   -4.9110    2.3090 C   0  0  0  0  0  2  0  0  0  0  0  0
    5.6690   -5.2750    1.7090 N   0  0  0  0  0  0  0  0  0  0  0  0
    3.8390   -6.1730   -0.7530 O   0  0  0  0  0  1  0  0  0  0  0  0
    5.0590   -6.4570   -0.5760 C   0  0  0  0  0  0  0  0  0  0  0  0
    5.7120   -7.4180   -1.0760 O   0  0  0  0  0  0  0  0  0  0  0  0
  1  3  2  0  0  0  0
  1  4  1  0  0  0  0
  2  1  2  0  0  0  0
  4 12  2  0  0  0  0
  4  5  1  0  0  0  0
  5  6  2  0  0  0  0
  6  8  1  0  0  0  0
  6  7  1  0  0  0  0
  8  9  1  0  0  0  0
 10  8  2  0  0  0  0
 11 10  1  0  0  0  0
 12 10  1  0  0  0  0
 13 12  1  0  0  0  0
 14 13  1  0  0  0  0
 15 21  1  1  0  0  0
 15 19  1  0  0  0  0
 16 15  1  0  0  0  0
 16 17  1  0  0  0  0
 17 18  1  0  0  0  0
 19 18  1  0  0  0  0
 19  1  1  0  0  0  0
 20 21  1  0  0  0  0
 22 21  2  0  0  0  0
M  END
>  <minimizedAffinity>
-4.80539274

$$$$

 OpenBabel09122219403D

 22 23  0  0  1  0  0  0  0  0999 V2000
    4.6780   -4.1990    4.1770 S   0  0  0  0  0  0  0  0  0  0  0  0
    4.1900   -2.8510    3.9910 O   0  0  0  0  0  0  0  0  0  0  0  0
    5.7510   -4.4270    5.1330 O   0  0  0  0  0  0  0  0  0  0  0  0
    5.2350   -4.9160    2.6580 C   0  0  0  0  0  0  0  0  0  0  0  0
    4.3300   -5.7490    1.9890 C   0  0  0  0  0  3  0  0  0  0  0  0
    4.7120   -6.3950    0.8130 C   0  0  0  0  0  0  0  0  0  0  0  0
    3.5320   -7.4190    0.0610 Cl  0  0  0  0  0  0  0  0  0  0  0  0
    6.0090   -6.2340    0.3020 C   0  0  0  0  0  0  0  0  0  0  0  0
    6.4860   -7.0830   -1.1410 Cl  0  0  0  0  0  0  0  0  0  0  0  0
    6.9180   -5.4030    0.9810 C   0  0  0  0  0  0  0  0  0  0  0  0
    8.5440   -5.1930    0.3920 Cl  0  0  0  0  0  0  0  0  0  0  0  0
    6.5250   -4.7380    2.1540 C   0  0  0  0  0  0  0  0  0  0  0  0
    7.4180   -3.8830    2.7470 O   0  0  0  0  0  0  0  0  0  0  0  0
    6.9810   -2.9820    2.7560 H   0  0  0  0  0  0  0  0  0  0  0  0
    2.6980   -4.8630    6.0340 C   0  0  2  0  0  3  0  0  0  0  0  0
    3.1520   -5.9890    6.9530 C   0  0  0  0  0  2  0  0  0  0  0  0
    3.1240   -7.1810    6.0190 C   0  0  0  0  0  2  0  0  0  0  0  0
    3.7310   -6.6290    4.7370 C   0  0  0  0  0  2  0  0  0  0  0  0
    3.3720   -5.1760    4.7050 N   0  0  0  0  0  0  0  0  0  0  0  0
    3.7990   -3.3080    7.4780 O   0  0  0  0  0  1  0  0  0  0  0  0
    2.8530   -3.4650    6.6530 C   0  0  0  0  0  0  0  0  0  0  0  0
    2.0870   -2.5810    6.1730 O   0  0  0  0  0  0  0  0  0  0  0  0
  1 19  1  0  0  0  0
  1  3  2  0  0  0  0
  2  1  2  0  0  0  0
  4  1  1  0  0  0  0
  5  4  2  0  0  0  0
  6  5  1  0  0  0  0
  7  6  1  0  0  0  0
  8  6  2  0  0  0  0
  8 10  1  0  0  0  0
  9  8  1  0  0  0  0
 10 12  2  0  0  0  0
 11 10  1  0  0  0  0
 12  4  1  0  0  0  0
 12 13  1  0  0  0  0
 13 14  1  0  0  0  0
 15 21  1  1  0  0  0
 15 16  1  0  0  0  0
 17 16  1  0  0  0  0
 18 17  1  0  0  0  0
 19 18  1  0  0  0  0
 19 15  1  0  0  0  0
 21 20  1  0  0  0  0
 22 21  2  0  0  0  0
M  END
>  <minimizedAffinity>
-4.64054108

$$$$

 OpenBabel09122219403D

 22 23  0  0  1  0  0  0  0  0999 V2000
    4.6550   -5.1670    3.3040 S   0  0  0  0  0  0  0  0  0  0  0  0
    3.4980   -5.6390    2.5760 O   0  0  0  0  0  0  0  0  0  0  0  0
    5.5000   -6.1420    3.9780 O   0  0  0  0  0  0  0  0  0  0  0  0
    4.2200   -3.9800    4.5400 C   0  0  0  0  0  0  0  0  0  0  0  0
    3.0360   -3.2620    4.3320 C   0  0  0  0  0  3  0  0  0  0  0  0
    2.6510   -2.2690    5.2330 C   0  0  0  0  0  0  0  0  0  0  0  0
    1.1790   -1.4220    4.8860 Cl  0  0  0  0  0  0  0  0  0  0  0  0
    3.4540   -1.9670    6.3430 C   0  0  0  0  0  0  0  0  0  0  0  0
    2.9840   -0.6940    7.4350 Cl  0  0  0  0  0  0  0  0  0  0  0  0
    4.6460   -2.6840    6.5470 C   0  0  0  0  0  0  0  0  0  0  0  0
    5.6820   -2.3250    7.9000 Cl  0  0  0  0  0  0  0  0  0  0  0  0
    5.0230   -3.6970    5.6480 C   0  0  0  0  0  0  0  0  0  0  0  0
    6.1550   -4.4190    5.9190 O   0  0  0  0  0  0  0  0  0  0  0  0
    5.8660   -5.3740    6.0050 H   0  0  0  0  0  0  0  0  0  0  0  0
    6.1770   -5.0720    0.9620 C   0  0  2  0  0  3  0  0  0  0  0  0
    7.6510   -5.3290    1.2460 C   0  0  0  0  0  2  0  0  0  0  0  0
    8.0610   -4.0480    1.9430 C   0  0  0  0  0  2  0  0  0  0  0  0
    6.8930   -3.7780    2.8810 C   0  0  0  0  0  2  0  0  0  0  0  0
    5.6830   -4.3450    2.2060 N   0  0  0  0  0  0  0  0  0  0  0  0
    4.4750   -6.1120   -0.3560 O   0  0  0  0  0  0  0  0  0  0  0  0
    5.4230   -6.3120    0.4570 C   0  0  0  0  0  0  0  0  0  0  0  0
    5.9170   -7.4190    0.8170 O   0  0  0  0  0  1  0  0  0  0  0  0
  1  3  2  0  0  0  0
  1  4  1  0  0  0  0
  2  1  2  0  0  0  0
  4 12  1  0  0  0  0
  5  4  2  0  0  0  0
  5  6  1  0  0  0  0
  6  8  2  0  0  0  0
  7  6  1  0  0  0  0
  8 10  1  0  0  0  0
  8  9  1  0  0  0  0
 10 11  1  0  0  0  0
 12 13  1  0  0  0  0
 12 10  2  0  0  0  0
 13 14  1  0  0  0  0
 15 21  1  1  0  0  0
 15 16  1  0  0  0  0
 15 19  1  0  0  0  0
 16 17  1  0  0  0  0
 17 18  1  0  0  0  0
 19 18  1  0  0  0  0
 19  1  1  0  0  0  0
 20 21  2  0  0  0  0
 21 22  1  0  0  0  0
M  END
>  <minimizedAffinity>
-4.62715626

$$$$

 OpenBabel09122219403D

 22 23  0  0  1  0  0  0  0  0999 V2000
    4.5980   -5.9700    4.2780 S   0  0  0  0  0  0  0  0  0  0  0  0
    5.1010   -5.1570    5.3630 O   0  0  0  0  0  0  0  0  0  0  0  0
    4.5940   -7.4170    4.4340 O   0  0  0  0  0  0  0  0  0  0  0  0
    5.4580   -5.6580    2.7640 C   0  0  0  0  0  0  0  0  0  0  0  0
    5.0640   -6.4120    1.6520 C   0  0  0  0  0  3  0  0  0  0  0  0
    5.7300   -6.2650    0.4350 C   0  0  0  0  0  0  0  0  0  0  0  0
    5.1850   -7.2510   -0.8830 Cl  0  0  0  0  0  0  0  0  0  0  0  0
    6.8090   -5.3760    0.3180 C   0  0  0  0  0  0  0  0  0  0  0  0
    7.6590   -5.2360   -1.1950 Cl  0  0  0  0  0  0  0  0  0  0  0  0
    7.2080   -4.6250    1.4380 C   0  0  0  0  0  0  0  0  0  0  0  0
    8.5560   -3.5270    1.3410 Cl  0  0  0  0  0  0  0  0  0  0  0  0
    6.5240   -4.7610    2.6580 C   0  0  0  0  0  0  0  0  0  0  0  0
    6.8980   -3.9610    3.7060 O   0  0  0  0  0  0  0  0  0  0  0  0
    6.0880   -3.4250    3.9540 H   0  0  0  0  0  0  0  0  0  0  0  0
    2.5280   -4.0930    4.2310 C   0  0  2  0  0  3  0  0  0  0  0  0
    1.6750   -4.1750    5.4900 C   0  0  0  0  0  2  0  0  0  0  0  0
    0.9290   -5.4750    5.2770 C   0  0  0  0  0  2  0  0  0  0  0  0
    2.0060   -6.4040    4.7350 C   0  0  0  0  0  2  0  0  0  0  0  0
    2.9660   -5.5310    3.9890 N   0  0  0  0  0  0  0  0  0  0  0  0
    4.1120   -2.6490    3.1730 O   0  0  0  0  0  0  0  0  0  0  0  0
    3.5810   -2.9760    4.2740 C   0  0  0  0  0  0  0  0  0  0  0  0
    3.7150   -2.4110    5.3970 O   0  0  0  0  0  1  0  0  0  0  0  0
  1  3  2  0  0  0  0
  1  2  2  0  0  0  0
  4  1  1  0  0  0  0
  5  4  2  0  0  0  0
  6  5  1  0  0  0  0
  7  6  1  0  0  0  0
  8  6  2  0  0  0  0
  8 10  1  0  0  0  0
  9  8  1  0  0  0  0
 10 12  2  0  0  0  0
 11 10  1  0  0  0  0
 12  4  1  0  0  0  0
 12 13  1  0  0  0  0
 13 14  1  0  0  0  0
 15 21  1  1  0  0  0
 15 16  1  0  0  0  0
 17 16  1  0  0  0  0
 18 17  1  0  0  0  0
 19 15  1  0  0  0  0
 19  1  1  0  0  0  0
 19 18  1  0  0  0  0
 20 21  2  0  0  0  0
 21 22  1  0  0  0  0
M  END
>  <minimizedAffinity>
-4.50879335

$$$$

 OpenBabel09122219403D

 22 23  0  0  1  0  0  0  0  0999 V2000
    5.7470   -4.7660    2.4190 S   0  0  0  0  0  0  0  0  0  0  0  0
    7.1230   -4.3350    2.5310 O   0  0  0  0  0  0  0  0  0  0  0  0
    4.8200   -3.9450    1.6550 O   0  0  0  0  0  0  0  0  0  0  0  0
    4.9920   -4.9860    4.0030 C   0  0  0  0  0  0  0  0  0  0  0  0
    3.9130   -5.8770    4.0660 C   0  0  0  0  0  3  0  0  0  0  0  0
    3.2290   -6.0640    5.2670 C   0  0  0  0  0  0  0  0  0  0  0  0
    1.8970   -7.1730    5.2470 Cl  0  0  0  0  0  0  0  0  0  0  0  0
    3.6010   -5.3500    6.4160 C   0  0  0  0  0  0  0  0  0  0  0  0
    2.7100   -5.5610    7.8970 Cl  0  0  0  0  0  0  0  0  0  0  0  0
    4.6810   -4.4510    6.3490 C   0  0  0  0  0  0  0  0  0  0  0  0
    5.1610   -3.5290    7.7470 Cl  0  0  0  0  0  0  0  0  0  0  0  0
    5.3810   -4.2780    5.1430 C   0  0  0  0  0  0  0  0  0  0  0  0
    6.4680   -3.4450    5.1370 O   0  0  0  0  0  0  0  0  0  0  0  0
    7.2510   -4.0070    4.8610 H   0  0  0  0  0  0  0  0  0  0  0  0
    6.5130   -6.5240    0.3860 C   0  0  2  0  0  3  0  0  0  0  0  0
    5.4410   -6.6290   -0.6910 C   0  0  0  0  0  2  0  0  0  0  0  0
    4.3620   -7.4180    0.0210 C   0  0  0  0  0  2  0  0  0  0  0  0
    4.3320   -6.7870    1.4060 C   0  0  0  0  0  2  0  0  0  0  0  0
    5.7250   -6.3080    1.6710 N   0  0  0  0  0  0  0  0  0  0  0  0
    8.7900   -5.8090    0.5230 O   0  0  0  0  0  1  0  0  0  0  0  0
    7.6540   -5.5610    0.0240 C   0  0  0  0  0  0  0  0  0  0  0  0
    7.3600   -4.6860   -0.8400 O   0  0  0  0  0  0  0  0  0  0  0  0
  1  2  2  0  0  0  0
  1  4  1  0  0  0  0
  3  1  2  0  0  0  0
  4  5  2  0  0  0  0
  4 12  1  0  0  0  0
  5  6  1  0  0  0  0
  6  8  2  0  0  0  0
  7  6  1  0  0  0  0
  8  9  1  0  0  0  0
 10  8  1  0  0  0  0
 10 11  1  0  0  0  0
 12 10  2  0  0  0  0
 13 12  1  0  0  0  0
 14 13  1  0  0  0  0
 15 21  1  6  0  0  0
 15 19  1  0  0  0  0
 16 17  1  0  0  0  0
 16 15  1  0  0  0  0
 17 18  1  0  0  0  0
 18 19  1  0  0  0  0
 19  1  1  0  0  0  0
 21 20  1  0  0  0  0
 22 21  2  0  0  0  0
M  END
>  <minimizedAffinity>
-4.48634434

$$$$

 OpenBabel09122219403D

 22 23  0  0  1  0  0  0  0  0999 V2000
    4.7360   -4.9940    3.2340 S   0  0  0  0  0  0  0  0  0  0  0  0
    3.5230   -5.3210    2.5180 O   0  0  0  0  0  0  0  0  0  0  0  0
    5.4500   -6.0610    3.9200 O   0  0  0  0  0  0  0  0  0  0  0  0
    4.4680   -3.7420    4.4550 C   0  0  0  0  0  0  0  0  0  0  0  0
    5.4730   -3.5760    5.4160 C   0  0  0  0  0  3  0  0  0  0  0  0
    5.3120   -2.6480    6.4440 C   0  0  0  0  0  0  0  0  0  0  0  0
    6.6000   -2.5210    7.5970 Cl  0  0  0  0  0  0  0  0  0  0  0  0
    4.1370   -1.8860    6.5370 C   0  0  0  0  0  0  0  0  0  0  0  0
    3.9310   -0.7630    7.8510 Cl  0  0  0  0  0  0  0  0  0  0  0  0
    3.1260   -2.0590    5.5740 C   0  0  0  0  0  0  0  0  0  0  0  0
    1.6440   -1.1490    5.6660 Cl  0  0  0  0  0  0  0  0  0  0  0  0
    3.2980   -2.9820    4.5280 C   0  0  0  0  0  0  0  0  0  0  0  0
    2.3200   -3.0710    3.5730 O   0  0  0  0  0  0  0  0  0  0  0  0
    2.7590   -2.8480    2.7000 H   0  0  0  0  0  0  0  0  0  0  0  0
    6.2400   -5.1300    0.8820 C   0  0  2  0  0  3  0  0  0  0  0  0
    7.6680   -5.5800    1.1610 C   0  0  0  0  0  2  0  0  0  0  0  0
    8.2510   -4.3580    1.8400 C   0  0  0  0  0  2  0  0  0  0  0  0
    7.1370   -3.9230    2.7810 C   0  0  0  0  0  2  0  0  0  0  0  0
    5.8570   -4.3300    2.1200 N   0  0  0  0  0  0  0  0  0  0  0  0
    5.4380   -7.3800    0.9820 O   0  0  0  0  0  1  0  0  0  0  0  0
    5.3230   -6.2640    0.3980 C   0  0  0  0  0  0  0  0  0  0  0  0
    4.4570   -5.9220   -0.4570 O   0  0  0  0  0  0  0  0  0  0  0  0
  1  3  2  0  0  0  0
  1  4  1  0  0  0  0
  2  1  2  0  0  0  0
  4 12  2  0  0  0  0
  4  5  1  0  0  0  0
  5  6  2  0  0  0  0
  6  8  1  0  0  0  0
  6  7  1  0  0  0  0
  8  9  1  0  0  0  0
 10 11  1  0  0  0  0
 10  8  2  0  0  0  0
 12 10  1  0  0  0  0
 13 12  1  0  0  0  0
 14 13  1  0  0  0  0
 15 21  1  1  0  0  0
 15 16  1  0  0  0  0
 15 19  1  0  0  0  0
 16 17  1  0  0  0  0
 17 18  1  0  0  0  0
 19 18  1  0  0  0  0
 19  1  1  0  0  0  0
 21 20  1  0  0  0  0
 22 21  2  0  0  0  0
M  END
>  <minimizedAffinity>
-4.27901649

$$$$
