
 OpenBabel09122222393D

 22 23  0  0  1  0  0  0  0  0999 V2000
    4.8850   -6.5260    2.5810 S   0  0  0  0  0  0  0  0  0  0  0  0
    3.8470   -7.0830    1.7420 O   0  0  0  0  0  0  0  0  0  0  0  0
    5.9470   -7.4030    3.0500 O   0  0  0  0  0  0  0  0  0  0  0  0
    4.2230   -5.7620    4.0320 C   0  0  0  0  0  0  0  0  0  0  0  0
    4.1580   -6.5550    5.1840 C   0  0  0  0  0  3  0  0  0  0  0  0
    3.5980   -6.0440    6.3550 C   0  0  0  0  0  0  0  0  0  0  0  0
    3.5450   -7.1010    7.7280 Cl  0  0  0  0  0  0  0  0  0  0  0  0
    3.0790   -4.7400    6.3850 C   0  0  0  0  0  0  0  0  0  0  0  0
    2.3430   -4.1310    7.8400 Cl  0  0  0  0  0  0  0  0  0  0  0  0
    3.1390   -3.9480    5.2240 C   0  0  0  0  0  0  0  0  0  0  0  0
    2.4870   -2.3330    5.2130 Cl  0  0  0  0  0  0  0  0  0  0  0  0
    3.7200   -4.4590    4.0510 C   0  0  0  0  0  0  0  0  0  0  0  0
    3.8220   -3.6320    2.9640 O   0  0  0  0  0  0  0  0  0  0  0  0
    4.7990   -3.5650    2.7510 H   0  0  0  0  0  0  0  0  0  0  0  0
    5.9000   -5.4420    0.2130 C   0  0  2  0  0  3  0  0  0  0  0  0
    7.4000   -5.6720    0.0950 C   0  0  0  0  0  2  0  0  0  0  0  0
    7.9440   -4.7190    1.1390 C   0  0  0  0  0  2  0  0  0  0  0  0
    6.9910   -4.9110    2.3090 C   0  0  0  0  0  2  0  0  0  0  0  0
    5.6690   -5.2750    1.7090 N   0  0  0  0  0  0  0  0  0  0  0  0
    3.8390   -6.1730   -0.7530 O   0  0  0  0  0  1  0  0  0  0  0  0
    5.0590   -6.4570   -0.5760 C   0  0  0  0  0  0  0  0  0  0  0  0
    5.7120   -7.4180   -1.0760 O   0  0  0  0  0  0  0  0  0  0  0  0
  1  3  2  0  0  0  0
  1  4  1  0  0  0  0
  2  1  2  0  0  0  0
  4 12  2  0  0  0  0
  4  5  1  0  0  0  0
  5  6  2  0  0  0  0
  6  8  1  0  0  0  0
  6  7  1  0  0  0  0
  8  9  1  0  0  0  0
 10  8  2  0  0  0  0
 11 10  1  0  0  0  0
 12 10  1  0  0  0  0
 13 12  1  0  0  0  0
 14 13  1  0  0  0  0
 15 21  1  1  0  0  0
 15 19  1  0  0  0  0
 16 15  1  0  0  0  0
 16 17  1  0  0  0  0
 17 18  1  0  0  0  0
 19 18  1  0  0  0  0
 19  1  1  0  0  0  0
 20 21  1  0  0  0  0
 22 21  2  0  0  0  0
M  END
>  <minimizedAffinity>
-4.80539274

$$$$
