
 OpenBabel09122222393D

 22 23  0  0  1  0  0  0  0  0999 V2000
    4.6780   -4.1990    4.1770 S   0  0  0  0  0  0  0  0  0  0  0  0
    4.1900   -2.8510    3.9910 O   0  0  0  0  0  0  0  0  0  0  0  0
    5.7510   -4.4270    5.1330 O   0  0  0  0  0  0  0  0  0  0  0  0
    5.2350   -4.9160    2.6580 C   0  0  0  0  0  0  0  0  0  0  0  0
    4.3300   -5.7490    1.9890 C   0  0  0  0  0  3  0  0  0  0  0  0
    4.7120   -6.3950    0.8130 C   0  0  0  0  0  0  0  0  0  0  0  0
    3.5320   -7.4190    0.0610 Cl  0  0  0  0  0  0  0  0  0  0  0  0
    6.0090   -6.2340    0.3020 C   0  0  0  0  0  0  0  0  0  0  0  0
    6.4860   -7.0830   -1.1410 Cl  0  0  0  0  0  0  0  0  0  0  0  0
    6.9180   -5.4030    0.9810 C   0  0  0  0  0  0  0  0  0  0  0  0
    8.5440   -5.1930    0.3920 Cl  0  0  0  0  0  0  0  0  0  0  0  0
    6.5250   -4.7380    2.1540 C   0  0  0  0  0  0  0  0  0  0  0  0
    7.4180   -3.8830    2.7470 O   0  0  0  0  0  0  0  0  0  0  0  0
    6.9810   -2.9820    2.7560 H   0  0  0  0  0  0  0  0  0  0  0  0
    2.6980   -4.8630    6.0340 C   0  0  2  0  0  3  0  0  0  0  0  0
    3.1520   -5.9890    6.9530 C   0  0  0  0  0  2  0  0  0  0  0  0
    3.1240   -7.1810    6.0190 C   0  0  0  0  0  2  0  0  0  0  0  0
    3.7310   -6.6290    4.7370 C   0  0  0  0  0  2  0  0  0  0  0  0
    3.3720   -5.1760    4.7050 N   0  0  0  0  0  0  0  0  0  0  0  0
    3.7990   -3.3080    7.4780 O   0  0  0  0  0  1  0  0  0  0  0  0
    2.8530   -3.4650    6.6530 C   0  0  0  0  0  0  0  0  0  0  0  0
    2.0870   -2.5810    6.1730 O   0  0  0  0  0  0  0  0  0  0  0  0
  1 19  1  0  0  0  0
  1  3  2  0  0  0  0
  2  1  2  0  0  0  0
  4  1  1  0  0  0  0
  5  4  2  0  0  0  0
  6  5  1  0  0  0  0
  7  6  1  0  0  0  0
  8  6  2  0  0  0  0
  8 10  1  0  0  0  0
  9  8  1  0  0  0  0
 10 12  2  0  0  0  0
 11 10  1  0  0  0  0
 12  4  1  0  0  0  0
 12 13  1  0  0  0  0
 13 14  1  0  0  0  0
 15 21  1  1  0  0  0
 15 16  1  0  0  0  0
 17 16  1  0  0  0  0
 18 17  1  0  0  0  0
 19 18  1  0  0  0  0
 19 15  1  0  0  0  0
 21 20  1  0  0  0  0
 22 21  2  0  0  0  0
M  END
>  <minimizedAffinity>
-4.64054108

$$$$
