
 OpenBabel09122219403D

 14 14  0  0  0  0  0  0  0  0999 V2000
    9.8410   -3.5240   -0.1390 C   0  0  0  0  0  0  0  0  0  0  0  0
   10.4880   -3.7990   -1.1560 O   0  0  0  0  0  0  0  0  0  0  0  0
    8.6260   -4.3340    0.1410 C   0  0  0  0  0  0  0  0  0  0  0  0
    7.8730   -4.9880   -0.8350 C   0  0  0  0  0  3  0  0  0  0  0  0
    6.7320   -5.6970   -0.4590 C   0  0  0  0  0  3  0  0  0  0  0  0
    6.3610   -5.6990    0.8760 C   0  0  0  0  0  3  0  0  0  0  0  0
    7.0380   -5.0490    1.8440 N   0  0  0  0  0  0  0  0  0  0  0  0
    8.1640   -4.3940    1.4530 C   0  0  0  0  0  3  0  0  0  0  0  0
   10.3830   -2.5230    0.8530 C   0  0  0  0  0  2  0  0  0  0  0  0
    9.8020   -1.1440    0.8600 C   0  0  0  0  0  0  0  0  0  0  0  0
    9.7460   -0.4480   -0.1560 O   0  0  0  0  0  0  0  0  0  0  0  0
    8.9330    0.6480    2.1960 O   0  0  0  0  0  0  0  0  0  0  0  0
    9.2390   -0.5830    2.1620 C   0  0  0  0  0  0  0  0  0  0  0  0
    9.1710   -1.4210    3.1130 O   0  0  0  0  0  1  0  0  0  0  0  0
  1  3  1  0  0  0  0
  1  9  1  0  0  0  0
  2  1  2  0  0  0  0
  3  8  1  0  0  0  0
  4  5  1  0  0  0  0
  4  3  2  0  0  0  0
  5  6  2  0  0  0  0
  6  7  1  0  0  0  0
  8  7  2  0  0  0  0
  9 10  1  0  0  0  0
 10 13  1  0  0  0  0
 11 10  2  0  0  0  0
 13 12  2  0  0  0  0
 13 14  1  0  0  0  0
M  END
>  <minimizedAffinity>
-5.44800806

$$$$

 OpenBabel09122219403D

 14 14  0  0  0  0  0  0  0  0999 V2000
   10.1500   -2.4680   -0.3430 C   0  0  0  0  0  0  0  0  0  0  0  0
   10.5010   -2.3960   -1.5260 O   0  0  0  0  0  0  0  0  0  0  0  0
    9.8420   -1.1940    0.3590 C   0  0  0  0  0  0  0  0  0  0  0  0
   10.1320    0.0740   -0.1460 C   0  0  0  0  0  3  0  0  0  0  0  0
    9.8230    1.2020    0.6150 C   0  0  0  0  0  3  0  0  0  0  0  0
    9.2670    1.0240    1.8710 C   0  0  0  0  0  3  0  0  0  0  0  0
    9.0070   -0.1840    2.4120 N   0  0  0  0  0  0  0  0  0  0  0  0
    9.2880   -1.2630    1.6350 C   0  0  0  0  0  3  0  0  0  0  0  0
    9.8810   -3.8140    0.2850 C   0  0  0  0  0  2  0  0  0  0  0  0
    8.6660   -4.5710   -0.1510 C   0  0  0  0  0  0  0  0  0  0  0  0
    8.4740   -4.8870   -1.3260 O   0  0  0  0  0  0  0  0  0  0  0  0
    7.8350   -4.6340    2.0980 O   0  0  0  0  0  1  0  0  0  0  0  0
    7.6360   -4.9850    0.8960 C   0  0  0  0  0  0  0  0  0  0  0  0
    6.6810   -5.6920    0.4470 O   0  0  0  0  0  0  0  0  0  0  0  0
  1  9  1  0  0  0  0
  1  3  1  0  0  0  0
  2  1  2  0  0  0  0
  3  8  1  0  0  0  0
  4  3  2  0  0  0  0
  4  5  1  0  0  0  0
  5  6  2  0  0  0  0
  6  7  1  0  0  0  0
  8  7  2  0  0  0  0
 10  9  1  0  0  0  0
 10 13  1  0  0  0  0
 11 10  2  0  0  0  0
 13 12  1  0  0  0  0
 14 13  2  0  0  0  0
M  END
>  <minimizedAffinity>
-5.35601521

$$$$

 OpenBabel09122219403D

 14 14  0  0  0  0  0  0  0  0999 V2000
    9.2260   -1.8750    1.2970 C   0  0  0  0  0  0  0  0  0  0  0  0
    8.2900   -1.9790    2.0970 O   0  0  0  0  0  0  0  0  0  0  0  0
    9.5790   -0.5080    0.8300 C   0  0  0  0  0  0  0  0  0  0  0  0
   10.1780   -0.2250   -0.3990 C   0  0  0  0  0  3  0  0  0  0  0  0
   10.4910    1.0950   -0.7200 C   0  0  0  0  0  3  0  0  0  0  0  0
   10.2310    2.0870    0.2130 C   0  0  0  0  0  3  0  0  0  0  0  0
    9.6900    1.8510    1.4260 N   0  0  0  0  0  0  0  0  0  0  0  0
    9.3640    0.5600    1.6980 C   0  0  0  0  0  3  0  0  0  0  0  0
   10.0730   -3.0790    0.9630 C   0  0  0  0  0  2  0  0  0  0  0  0
    9.7500   -3.8520   -0.2770 C   0  0  0  0  0  0  0  0  0  0  0  0
   10.5010   -3.8720   -1.2550 O   0  0  0  0  0  0  0  0  0  0  0  0
    8.0970   -5.2770    0.7180 O   0  0  0  0  0  1  0  0  0  0  0  0
    8.4580   -4.6610   -0.3310 C   0  0  0  0  0  0  0  0  0  0  0  0
    7.8840   -4.6660   -1.4640 O   0  0  0  0  0  0  0  0  0  0  0  0
  1  2  2  0  0  0  0
  3  1  1  0  0  0  0
  3  8  1  0  0  0  0
  4  3  2  0  0  0  0
  5  4  1  0  0  0  0
  5  6  2  0  0  0  0
  6  7  1  0  0  0  0
  7  8  2  0  0  0  0
  9  1  1  0  0  0  0
 10  9  1  0  0  0  0
 11 10  2  0  0  0  0
 13 10  1  0  0  0  0
 13 12  1  0  0  0  0
 14 13  2  0  0  0  0
M  END
>  <minimizedAffinity>
-5.24838781

$$$$

 OpenBabel09122219403D

 14 14  0  0  0  0  0  0  0  0999 V2000
   10.1620   -2.4720   -0.3630 C   0  0  0  0  0  0  0  0  0  0  0  0
   10.4640   -2.3860   -1.5580 O   0  0  0  0  0  0  0  0  0  0  0  0
    9.9070   -1.2050    0.3720 C   0  0  0  0  0  0  0  0  0  0  0  0
    9.2470   -1.1240    1.5990 C   0  0  0  0  0  3  0  0  0  0  0  0
    9.0380    0.1240    2.1840 C   0  0  0  0  0  3  0  0  0  0  0  0
    9.4630    1.2560    1.5060 C   0  0  0  0  0  3  0  0  0  0  0  0
   10.0700    1.2250    0.3020 N   0  0  0  0  0  0  0  0  0  0  0  0
   10.2900   -0.0080   -0.2280 C   0  0  0  0  0  3  0  0  0  0  0  0
    9.8960   -3.8230    0.2550 C   0  0  0  0  0  2  0  0  0  0  0  0
    8.6640   -4.5640   -0.1620 C   0  0  0  0  0  0  0  0  0  0  0  0
    8.4510   -4.8800   -1.3340 O   0  0  0  0  0  0  0  0  0  0  0  0
    7.8490   -4.5860    2.0930 O   0  0  0  0  0  1  0  0  0  0  0  0
    7.6430   -4.9620    0.8990 C   0  0  0  0  0  0  0  0  0  0  0  0
    6.6880   -5.6810    0.4710 O   0  0  0  0  0  0  0  0  0  0  0  0
  1  9  1  0  0  0  0
  1  3  1  0  0  0  0
  2  1  2  0  0  0  0
  3  4  1  0  0  0  0
  4  5  2  0  0  0  0
  6  5  1  0  0  0  0
  7  6  2  0  0  0  0
  8  7  1  0  0  0  0
  8  3  2  0  0  0  0
 10  9  1  0  0  0  0
 10 13  1  0  0  0  0
 11 10  2  0  0  0  0
 13 12  1  0  0  0  0
 14 13  2  0  0  0  0
M  END
>  <minimizedAffinity>
-5.22836018

$$$$

 OpenBabel09122219403D

 14 14  0  0  0  0  0  0  0  0999 V2000
    8.6960   -3.3450    2.6410 C   0  0  0  0  0  0  0  0  0  0  0  0
    7.9920   -3.5070    3.6440 O   0  0  0  0  0  0  0  0  0  0  0  0
    8.2930   -4.0560    1.3990 C   0  0  0  0  0  0  0  0  0  0  0  0
    7.2910   -5.0250    1.3350 C   0  0  0  0  0  3  0  0  0  0  0  0
    7.0170   -5.6480    0.1180 C   0  0  0  0  0  3  0  0  0  0  0  0
    7.7770   -5.3080   -0.9900 C   0  0  0  0  0  3  0  0  0  0  0  0
    8.7790   -4.4050   -0.9620 N   0  0  0  0  0  0  0  0  0  0  0  0
    9.0020   -3.7910    0.2300 C   0  0  0  0  0  3  0  0  0  0  0  0
    9.8080   -2.3260    2.6550 C   0  0  0  0  0  2  0  0  0  0  0  0
    9.4650   -0.9050    2.9780 C   0  0  0  0  0  0  0  0  0  0  0  0
    9.3930   -0.4920    4.1370 O   0  0  0  0  0  0  0  0  0  0  0  0
    9.3920   -0.3370    0.6490 O   0  0  0  0  0  0  0  0  0  0  0  0
    9.2160    0.0750    1.8360 C   0  0  0  0  0  0  0  0  0  0  0  0
    8.8870    1.2450    2.2050 O   0  0  0  0  0  1  0  0  0  0  0  0
  1  9  1  0  0  0  0
  1  2  2  0  0  0  0
  3  1  1  0  0  0  0
  4  3  1  0  0  0  0
  5  4  2  0  0  0  0
  6  7  2  0  0  0  0
  6  5  1  0  0  0  0
  7  8  1  0  0  0  0
  8  3  2  0  0  0  0
  9 10  1  0  0  0  0
 10 11  2  0  0  0  0
 12 13  2  0  0  0  0
 13 14  1  0  0  0  0
 13 10  1  0  0  0  0
M  END
>  <minimizedAffinity>
-5.15822601

$$$$

 OpenBabel09122219403D

 14 14  0  0  0  0  0  0  0  0999 V2000
    9.2070   -1.8740    1.4220 C   0  0  0  0  0  0  0  0  0  0  0  0
    8.2410   -2.0110    2.1820 O   0  0  0  0  0  0  0  0  0  0  0  0
    9.5910   -0.4880    1.0460 C   0  0  0  0  0  0  0  0  0  0  0  0
    9.3670    0.6360    1.8420 C   0  0  0  0  0  3  0  0  0  0  0  0
    9.7450    1.8940    1.3740 C   0  0  0  0  0  3  0  0  0  0  0  0
   10.3010    1.9930    0.1090 C   0  0  0  0  0  3  0  0  0  0  0  0
   10.4990    0.9380   -0.7080 N   0  0  0  0  0  0  0  0  0  0  0  0
   10.1520   -0.2790   -0.2120 C   0  0  0  0  0  3  0  0  0  0  0  0
   10.0510   -3.0680    1.0510 C   0  0  0  0  0  2  0  0  0  0  0  0
    9.7480   -3.7830   -0.2290 C   0  0  0  0  0  0  0  0  0  0  0  0
   10.4820   -3.7040   -1.2160 O   0  0  0  0  0  0  0  0  0  0  0  0
    7.9790   -5.0540    0.7730 O   0  0  0  0  0  1  0  0  0  0  0  0
    8.5000   -4.6560   -0.3130 C   0  0  0  0  0  0  0  0  0  0  0  0
    8.1270   -4.9330   -1.4940 O   0  0  0  0  0  0  0  0  0  0  0  0
  1  2  2  0  0  0  0
  3  1  1  0  0  0  0
  3  4  1  0  0  0  0
  5  4  2  0  0  0  0
  6  5  1  0  0  0  0
  7  8  1  0  0  0  0
  7  6  2  0  0  0  0
  8  3  2  0  0  0  0
  9  1  1  0  0  0  0
 10  9  1  0  0  0  0
 11 10  2  0  0  0  0
 13 10  1  0  0  0  0
 13 12  1  0  0  0  0
 14 13  2  0  0  0  0
M  END
>  <minimizedAffinity>
-5.0428915

$$$$

 OpenBabel09122219403D

 14 14  0  0  0  0  0  0  0  0999 V2000
    8.8110   -2.7500    1.9520 C   0  0  0  0  0  0  0  0  0  0  0  0
    8.3750   -2.9770    3.0860 O   0  0  0  0  0  0  0  0  0  0  0  0
    9.1550   -1.3420    1.6200 C   0  0  0  0  0  0  0  0  0  0  0  0
    9.5990   -0.9130    0.3680 C   0  0  0  0  0  3  0  0  0  0  0  0
    9.9210    0.4310    0.1780 C   0  0  0  0  0  3  0  0  0  0  0  0
    9.8230    1.2970    1.2560 C   0  0  0  0  0  3  0  0  0  0  0  0
    9.4360    0.9160    2.4910 N   0  0  0  0  0  0  0  0  0  0  0  0
    9.0970   -0.3930    2.6370 C   0  0  0  0  0  3  0  0  0  0  0  0
    9.1400   -3.8940    1.0240 C   0  0  0  0  0  2  0  0  0  0  0  0
    8.0780   -4.9110    0.7480 C   0  0  0  0  0  0  0  0  0  0  0  0
    7.5330   -5.5540    1.6470 O   0  0  0  0  0  0  0  0  0  0  0  0
    6.5040   -5.6880   -0.8870 O   0  0  0  0  0  1  0  0  0  0  0  0
    7.6370   -5.1500   -0.6930 C   0  0  0  0  0  0  0  0  0  0  0  0
    8.4900   -4.8120   -1.5700 O   0  0  0  0  0  0  0  0  0  0  0  0
  1  2  2  0  0  0  0
  3  1  1  0  0  0  0
  3  8  1  0  0  0  0
  4  3  2  0  0  0  0
  5  4  1  0  0  0  0
  5  6  2  0  0  0  0
  6  7  1  0  0  0  0
  7  8  2  0  0  0  0
  9  1  1  0  0  0  0
 10  9  1  0  0  0  0
 10 11  2  0  0  0  0
 12 13  1  0  0  0  0
 13 10  1  0  0  0  0
 14 13  2  0  0  0  0
M  END
>  <minimizedAffinity>
-4.79365063

$$$$

 OpenBabel09122219403D

 14 14  0  0  0  0  0  0  0  0999 V2000
    9.7200   -2.7620   -0.0300 C   0  0  0  0  0  0  0  0  0  0  0  0
   10.2920   -2.8180   -1.1250 O   0  0  0  0  0  0  0  0  0  0  0  0
    8.7450   -3.8380    0.2890 C   0  0  0  0  0  0  0  0  0  0  0  0
    8.1700   -4.6870   -0.6580 C   0  0  0  0  0  3  0  0  0  0  0  0
    7.2420   -5.6440   -0.2470 C   0  0  0  0  0  3  0  0  0  0  0  0
    6.8930   -5.6990    1.0930 C   0  0  0  0  0  3  0  0  0  0  0  0
    7.3960   -4.8730    2.0330 N   0  0  0  0  0  0  0  0  0  0  0  0
    8.3220   -3.9720    1.6090 C   0  0  0  0  0  3  0  0  0  0  0  0
   10.1440   -1.7370    0.9930 C   0  0  0  0  0  2  0  0  0  0  0  0
    9.8130   -0.3000    0.7370 C   0  0  0  0  0  0  0  0  0  0  0  0
    9.8690    0.1980   -0.3890 O   0  0  0  0  0  0  0  0  0  0  0  0
    9.3140    0.0510    3.0570 O   0  0  0  0  0  1  0  0  0  0  0  0
    9.3700    0.5780    1.9040 C   0  0  0  0  0  0  0  0  0  0  0  0
    9.0580    1.7660    1.5840 O   0  0  0  0  0  0  0  0  0  0  0  0
  1  3  1  0  0  0  0
  1  9  1  0  0  0  0
  2  1  2  0  0  0  0
  3  8  1  0  0  0  0
  4  5  1  0  0  0  0
  4  3  2  0  0  0  0
  5  6  2  0  0  0  0
  6  7  1  0  0  0  0
  8  7  2  0  0  0  0
 10  9  1  0  0  0  0
 10 13  1  0  0  0  0
 11 10  2  0  0  0  0
 13 12  1  0  0  0  0
 14 13  2  0  0  0  0
M  END
>  <minimizedAffinity>
-4.72058439

$$$$

 OpenBabel09122219403D

 14 14  0  0  0  0  0  0  0  0999 V2000
    8.8700   -2.6410    1.8550 C   0  0  0  0  0  0  0  0  0  0  0  0
    8.3960   -2.7270    2.9940 O   0  0  0  0  0  0  0  0  0  0  0  0
    9.2710   -1.2910    1.3810 C   0  0  0  0  0  0  0  0  0  0  0  0
    9.0470   -0.1080    2.0870 C   0  0  0  0  0  3  0  0  0  0  0  0
    9.4410    1.1080    1.5300 C   0  0  0  0  0  3  0  0  0  0  0  0
   10.0140    1.1070    0.2690 C   0  0  0  0  0  3  0  0  0  0  0  0
   10.2130   -0.0080   -0.4640 N   0  0  0  0  0  0  0  0  0  0  0  0
    9.8490   -1.1820    0.1180 C   0  0  0  0  0  3  0  0  0  0  0  0
    9.1830   -3.8920    1.0700 C   0  0  0  0  0  2  0  0  0  0  0  0
    8.0700   -4.8540    0.7930 C   0  0  0  0  0  0  0  0  0  0  0  0
    7.4460   -5.4150    1.6960 O   0  0  0  0  0  0  0  0  0  0  0  0
    8.4720   -4.7620   -1.5690 O   0  0  0  0  0  0  0  0  0  0  0  0
    7.6780   -5.1370   -0.6530 C   0  0  0  0  0  0  0  0  0  0  0  0
    6.5490   -5.6990   -0.7950 O   0  0  0  0  0  1  0  0  0  0  0  0
  1  2  2  0  0  0  0
  3  1  1  0  0  0  0
  3  4  1  0  0  0  0
  5  4  2  0  0  0  0
  6  5  1  0  0  0  0
  7  8  1  0  0  0  0
  7  6  2  0  0  0  0
  8  3  2  0  0  0  0
  9  1  1  0  0  0  0
 10  9  1  0  0  0  0
 10 11  2  0  0  0  0
 12 13  2  0  0  0  0
 13 10  1  0  0  0  0
 14 13  1  0  0  0  0
M  END
>  <minimizedAffinity>
-4.71618271

$$$$

 OpenBabel09122219403D

 14 14  0  0  0  0  0  0  0  0999 V2000
    9.1780   -1.2320    2.2580 C   0  0  0  0  0  0  0  0  0  0  0  0
    9.6960   -1.2160    3.3810 O   0  0  0  0  0  0  0  0  0  0  0  0
    8.9380   -2.5590    1.6330 C   0  0  0  0  0  0  0  0  0  0  0  0
    9.3950   -2.9290    0.3670 C   0  0  0  0  0  3  0  0  0  0  0  0
    9.0840   -4.1940   -0.1310 C   0  0  0  0  0  3  0  0  0  0  0  0
    8.2960   -5.0360    0.6370 C   0  0  0  0  0  3  0  0  0  0  0  0
    7.8020   -4.7030    1.8470 N   0  0  0  0  0  0  0  0  0  0  0  0
    8.1480   -3.4770    2.3210 C   0  0  0  0  0  3  0  0  0  0  0  0
    8.6580    0.0470    1.6470 C   0  0  0  0  0  2  0  0  0  0  0  0
    9.3880    1.3210    1.9380 C   0  0  0  0  0  0  0  0  0  0  0  0
    9.4060    1.8270    3.0610 O   0  0  0  0  0  0  0  0  0  0  0  0
   10.5000    1.3090   -0.1870 O   0  0  0  0  0  0  0  0  0  0  0  0
   10.1540    2.0100    0.8130 C   0  0  0  0  0  0  0  0  0  0  0  0
   10.4060    3.2370    1.0190 O   0  0  0  0  0  1  0  0  0  0  0  0
  1  2  2  0  0  0  0
  3  1  1  0  0  0  0
  3  8  1  0  0  0  0
  4  3  2  0  0  0  0
  5  4  1  0  0  0  0
  5  6  2  0  0  0  0
  6  7  1  0  0  0  0
  7  8  2  0  0  0  0
  9 10  1  0  0  0  0
  9  1  1  0  0  0  0
 10 11  2  0  0  0  0
 12 13  2  0  0  0  0
 13 14  1  0  0  0  0
 13 10  1  0  0  0  0
M  END
>  <minimizedAffinity>
-4.47712946

$$$$
