
 OpenBabel09122222393D

 14 14  0  0  0  0  0  0  0  0999 V2000
   10.1500   -2.4680   -0.3430 C   0  0  0  0  0  0  0  0  0  0  0  0
   10.5010   -2.3960   -1.5260 O   0  0  0  0  0  0  0  0  0  0  0  0
    9.8420   -1.1940    0.3590 C   0  0  0  0  0  0  0  0  0  0  0  0
   10.1320    0.0740   -0.1460 C   0  0  0  0  0  3  0  0  0  0  0  0
    9.8230    1.2020    0.6150 C   0  0  0  0  0  3  0  0  0  0  0  0
    9.2670    1.0240    1.8710 C   0  0  0  0  0  3  0  0  0  0  0  0
    9.0070   -0.1840    2.4120 N   0  0  0  0  0  0  0  0  0  0  0  0
    9.2880   -1.2630    1.6350 C   0  0  0  0  0  3  0  0  0  0  0  0
    9.8810   -3.8140    0.2850 C   0  0  0  0  0  2  0  0  0  0  0  0
    8.6660   -4.5710   -0.1510 C   0  0  0  0  0  0  0  0  0  0  0  0
    8.4740   -4.8870   -1.3260 O   0  0  0  0  0  0  0  0  0  0  0  0
    7.8350   -4.6340    2.0980 O   0  0  0  0  0  1  0  0  0  0  0  0
    7.6360   -4.9850    0.8960 C   0  0  0  0  0  0  0  0  0  0  0  0
    6.6810   -5.6920    0.4470 O   0  0  0  0  0  0  0  0  0  0  0  0
  1  9  1  0  0  0  0
  1  3  1  0  0  0  0
  2  1  2  0  0  0  0
  3  8  1  0  0  0  0
  4  3  2  0  0  0  0
  4  5  1  0  0  0  0
  5  6  2  0  0  0  0
  6  7  1  0  0  0  0
  8  7  2  0  0  0  0
 10  9  1  0  0  0  0
 10 13  1  0  0  0  0
 11 10  2  0  0  0  0
 13 12  1  0  0  0  0
 14 13  2  0  0  0  0
M  END
>  <minimizedAffinity>
-5.35601521

$$$$
