
 OpenBabel09122222393D

 14 14  0  0  0  0  0  0  0  0999 V2000
    9.7200   -2.7620   -0.0300 C   0  0  0  0  0  0  0  0  0  0  0  0
   10.2920   -2.8180   -1.1250 O   0  0  0  0  0  0  0  0  0  0  0  0
    8.7450   -3.8380    0.2890 C   0  0  0  0  0  0  0  0  0  0  0  0
    8.1700   -4.6870   -0.6580 C   0  0  0  0  0  3  0  0  0  0  0  0
    7.2420   -5.6440   -0.2470 C   0  0  0  0  0  3  0  0  0  0  0  0
    6.8930   -5.6990    1.0930 C   0  0  0  0  0  3  0  0  0  0  0  0
    7.3960   -4.8730    2.0330 N   0  0  0  0  0  0  0  0  0  0  0  0
    8.3220   -3.9720    1.6090 C   0  0  0  0  0  3  0  0  0  0  0  0
   10.1440   -1.7370    0.9930 C   0  0  0  0  0  2  0  0  0  0  0  0
    9.8130   -0.3000    0.7370 C   0  0  0  0  0  0  0  0  0  0  0  0
    9.8690    0.1980   -0.3890 O   0  0  0  0  0  0  0  0  0  0  0  0
    9.3140    0.0510    3.0570 O   0  0  0  0  0  1  0  0  0  0  0  0
    9.3700    0.5780    1.9040 C   0  0  0  0  0  0  0  0  0  0  0  0
    9.0580    1.7660    1.5840 O   0  0  0  0  0  0  0  0  0  0  0  0
  1  3  1  0  0  0  0
  1  9  1  0  0  0  0
  2  1  2  0  0  0  0
  3  8  1  0  0  0  0
  4  5  1  0  0  0  0
  4  3  2  0  0  0  0
  5  6  2  0  0  0  0
  6  7  1  0  0  0  0
  8  7  2  0  0  0  0
 10  9  1  0  0  0  0
 10 13  1  0  0  0  0
 11 10  2  0  0  0  0
 13 12  1  0  0  0  0
 14 13  2  0  0  0  0
M  END
>  <minimizedAffinity>
-4.72058439

$$$$
