
 OpenBabel09122222393D

 14 14  0  0  0  0  0  0  0  0999 V2000
    9.8410   -3.5240   -0.1390 C   0  0  0  0  0  0  0  0  0  0  0  0
   10.4880   -3.7990   -1.1560 O   0  0  0  0  0  0  0  0  0  0  0  0
    8.6260   -4.3340    0.1410 C   0  0  0  0  0  0  0  0  0  0  0  0
    7.8730   -4.9880   -0.8350 C   0  0  0  0  0  3  0  0  0  0  0  0
    6.7320   -5.6970   -0.4590 C   0  0  0  0  0  3  0  0  0  0  0  0
    6.3610   -5.6990    0.8760 C   0  0  0  0  0  3  0  0  0  0  0  0
    7.0380   -5.0490    1.8440 N   0  0  0  0  0  0  0  0  0  0  0  0
    8.1640   -4.3940    1.4530 C   0  0  0  0  0  3  0  0  0  0  0  0
   10.3830   -2.5230    0.8530 C   0  0  0  0  0  2  0  0  0  0  0  0
    9.8020   -1.1440    0.8600 C   0  0  0  0  0  0  0  0  0  0  0  0
    9.7460   -0.4480   -0.1560 O   0  0  0  0  0  0  0  0  0  0  0  0
    8.9330    0.6480    2.1960 O   0  0  0  0  0  0  0  0  0  0  0  0
    9.2390   -0.5830    2.1620 C   0  0  0  0  0  0  0  0  0  0  0  0
    9.1710   -1.4210    3.1130 O   0  0  0  0  0  1  0  0  0  0  0  0
  1  3  1  0  0  0  0
  1  9  1  0  0  0  0
  2  1  2  0  0  0  0
  3  8  1  0  0  0  0
  4  5  1  0  0  0  0
  4  3  2  0  0  0  0
  5  6  2  0  0  0  0
  6  7  1  0  0  0  0
  8  7  2  0  0  0  0
  9 10  1  0  0  0  0
 10 13  1  0  0  0  0
 11 10  2  0  0  0  0
 13 12  2  0  0  0  0
 13 14  1  0  0  0  0
M  END
>  <minimizedAffinity>
-5.44800806

$$$$
