
 OpenBabel09122222393D

 14 14  0  0  0  0  0  0  0  0999 V2000
    8.8110   -2.7500    1.9520 C   0  0  0  0  0  0  0  0  0  0  0  0
    8.3750   -2.9770    3.0860 O   0  0  0  0  0  0  0  0  0  0  0  0
    9.1550   -1.3420    1.6200 C   0  0  0  0  0  0  0  0  0  0  0  0
    9.5990   -0.9130    0.3680 C   0  0  0  0  0  3  0  0  0  0  0  0
    9.9210    0.4310    0.1780 C   0  0  0  0  0  3  0  0  0  0  0  0
    9.8230    1.2970    1.2560 C   0  0  0  0  0  3  0  0  0  0  0  0
    9.4360    0.9160    2.4910 N   0  0  0  0  0  0  0  0  0  0  0  0
    9.0970   -0.3930    2.6370 C   0  0  0  0  0  3  0  0  0  0  0  0
    9.1400   -3.8940    1.0240 C   0  0  0  0  0  2  0  0  0  0  0  0
    8.0780   -4.9110    0.7480 C   0  0  0  0  0  0  0  0  0  0  0  0
    7.5330   -5.5540    1.6470 O   0  0  0  0  0  0  0  0  0  0  0  0
    6.5040   -5.6880   -0.8870 O   0  0  0  0  0  1  0  0  0  0  0  0
    7.6370   -5.1500   -0.6930 C   0  0  0  0  0  0  0  0  0  0  0  0
    8.4900   -4.8120   -1.5700 O   0  0  0  0  0  0  0  0  0  0  0  0
  1  2  2  0  0  0  0
  3  1  1  0  0  0  0
  3  8  1  0  0  0  0
  4  3  2  0  0  0  0
  5  4  1  0  0  0  0
  5  6  2  0  0  0  0
  6  7  1  0  0  0  0
  7  8  2  0  0  0  0
  9  1  1  0  0  0  0
 10  9  1  0  0  0  0
 10 11  2  0  0  0  0
 12 13  1  0  0  0  0
 13 10  1  0  0  0  0
 14 13  2  0  0  0  0
M  END
>  <minimizedAffinity>
-4.79365063

$$$$
