
 OpenBabel09122222393D

 14 14  0  0  0  0  0  0  0  0999 V2000
    9.2070   -1.8740    1.4220 C   0  0  0  0  0  0  0  0  0  0  0  0
    8.2410   -2.0110    2.1820 O   0  0  0  0  0  0  0  0  0  0  0  0
    9.5910   -0.4880    1.0460 C   0  0  0  0  0  0  0  0  0  0  0  0
    9.3670    0.6360    1.8420 C   0  0  0  0  0  3  0  0  0  0  0  0
    9.7450    1.8940    1.3740 C   0  0  0  0  0  3  0  0  0  0  0  0
   10.3010    1.9930    0.1090 C   0  0  0  0  0  3  0  0  0  0  0  0
   10.4990    0.9380   -0.7080 N   0  0  0  0  0  0  0  0  0  0  0  0
   10.1520   -0.2790   -0.2120 C   0  0  0  0  0  3  0  0  0  0  0  0
   10.0510   -3.0680    1.0510 C   0  0  0  0  0  2  0  0  0  0  0  0
    9.7480   -3.7830   -0.2290 C   0  0  0  0  0  0  0  0  0  0  0  0
   10.4820   -3.7040   -1.2160 O   0  0  0  0  0  0  0  0  0  0  0  0
    7.9790   -5.0540    0.7730 O   0  0  0  0  0  1  0  0  0  0  0  0
    8.5000   -4.6560   -0.3130 C   0  0  0  0  0  0  0  0  0  0  0  0
    8.1270   -4.9330   -1.4940 O   0  0  0  0  0  0  0  0  0  0  0  0
  1  2  2  0  0  0  0
  3  1  1  0  0  0  0
  3  4  1  0  0  0  0
  5  4  2  0  0  0  0
  6  5  1  0  0  0  0
  7  8  1  0  0  0  0
  7  6  2  0  0  0  0
  8  3  2  0  0  0  0
  9  1  1  0  0  0  0
 10  9  1  0  0  0  0
 11 10  2  0  0  0  0
 13 10  1  0  0  0  0
 13 12  1  0  0  0  0
 14 13  2  0  0  0  0
M  END
>  <minimizedAffinity>
-5.0428915

$$$$
