
 OpenBabel09122222393D

 14 14  0  0  0  0  0  0  0  0999 V2000
    9.1780   -1.2320    2.2580 C   0  0  0  0  0  0  0  0  0  0  0  0
    9.6960   -1.2160    3.3810 O   0  0  0  0  0  0  0  0  0  0  0  0
    8.9380   -2.5590    1.6330 C   0  0  0  0  0  0  0  0  0  0  0  0
    9.3950   -2.9290    0.3670 C   0  0  0  0  0  3  0  0  0  0  0  0
    9.0840   -4.1940   -0.1310 C   0  0  0  0  0  3  0  0  0  0  0  0
    8.2960   -5.0360    0.6370 C   0  0  0  0  0  3  0  0  0  0  0  0
    7.8020   -4.7030    1.8470 N   0  0  0  0  0  0  0  0  0  0  0  0
    8.1480   -3.4770    2.3210 C   0  0  0  0  0  3  0  0  0  0  0  0
    8.6580    0.0470    1.6470 C   0  0  0  0  0  2  0  0  0  0  0  0
    9.3880    1.3210    1.9380 C   0  0  0  0  0  0  0  0  0  0  0  0
    9.4060    1.8270    3.0610 O   0  0  0  0  0  0  0  0  0  0  0  0
   10.5000    1.3090   -0.1870 O   0  0  0  0  0  0  0  0  0  0  0  0
   10.1540    2.0100    0.8130 C   0  0  0  0  0  0  0  0  0  0  0  0
   10.4060    3.2370    1.0190 O   0  0  0  0  0  1  0  0  0  0  0  0
  1  2  2  0  0  0  0
  3  1  1  0  0  0  0
  3  8  1  0  0  0  0
  4  3  2  0  0  0  0
  5  4  1  0  0  0  0
  5  6  2  0  0  0  0
  6  7  1  0  0  0  0
  7  8  2  0  0  0  0
  9 10  1  0  0  0  0
  9  1  1  0  0  0  0
 10 11  2  0  0  0  0
 12 13  2  0  0  0  0
 13 14  1  0  0  0  0
 13 10  1  0  0  0  0
M  END
>  <minimizedAffinity>
-4.47712946

$$$$
