
 OpenBabel09122222393D

 14 14  0  0  0  0  0  0  0  0999 V2000
    8.8700   -2.6410    1.8550 C   0  0  0  0  0  0  0  0  0  0  0  0
    8.3960   -2.7270    2.9940 O   0  0  0  0  0  0  0  0  0  0  0  0
    9.2710   -1.2910    1.3810 C   0  0  0  0  0  0  0  0  0  0  0  0
    9.0470   -0.1080    2.0870 C   0  0  0  0  0  3  0  0  0  0  0  0
    9.4410    1.1080    1.5300 C   0  0  0  0  0  3  0  0  0  0  0  0
   10.0140    1.1070    0.2690 C   0  0  0  0  0  3  0  0  0  0  0  0
   10.2130   -0.0080   -0.4640 N   0  0  0  0  0  0  0  0  0  0  0  0
    9.8490   -1.1820    0.1180 C   0  0  0  0  0  3  0  0  0  0  0  0
    9.1830   -3.8920    1.0700 C   0  0  0  0  0  2  0  0  0  0  0  0
    8.0700   -4.8540    0.7930 C   0  0  0  0  0  0  0  0  0  0  0  0
    7.4460   -5.4150    1.6960 O   0  0  0  0  0  0  0  0  0  0  0  0
    8.4720   -4.7620   -1.5690 O   0  0  0  0  0  0  0  0  0  0  0  0
    7.6780   -5.1370   -0.6530 C   0  0  0  0  0  0  0  0  0  0  0  0
    6.5490   -5.6990   -0.7950 O   0  0  0  0  0  1  0  0  0  0  0  0
  1  2  2  0  0  0  0
  3  1  1  0  0  0  0
  3  4  1  0  0  0  0
  5  4  2  0  0  0  0
  6  5  1  0  0  0  0
  7  8  1  0  0  0  0
  7  6  2  0  0  0  0
  8  3  2  0  0  0  0
  9  1  1  0  0  0  0
 10  9  1  0  0  0  0
 10 11  2  0  0  0  0
 12 13  2  0  0  0  0
 13 10  1  0  0  0  0
 14 13  1  0  0  0  0
M  END
>  <minimizedAffinity>
-4.71618271

$$$$
