
 OpenBabel09122222393D

 14 14  0  0  0  0  0  0  0  0999 V2000
    8.6960   -3.3450    2.6410 C   0  0  0  0  0  0  0  0  0  0  0  0
    7.9920   -3.5070    3.6440 O   0  0  0  0  0  0  0  0  0  0  0  0
    8.2930   -4.0560    1.3990 C   0  0  0  0  0  0  0  0  0  0  0  0
    7.2910   -5.0250    1.3350 C   0  0  0  0  0  3  0  0  0  0  0  0
    7.0170   -5.6480    0.1180 C   0  0  0  0  0  3  0  0  0  0  0  0
    7.7770   -5.3080   -0.9900 C   0  0  0  0  0  3  0  0  0  0  0  0
    8.7790   -4.4050   -0.9620 N   0  0  0  0  0  0  0  0  0  0  0  0
    9.0020   -3.7910    0.2300 C   0  0  0  0  0  3  0  0  0  0  0  0
    9.8080   -2.3260    2.6550 C   0  0  0  0  0  2  0  0  0  0  0  0
    9.4650   -0.9050    2.9780 C   0  0  0  0  0  0  0  0  0  0  0  0
    9.3930   -0.4920    4.1370 O   0  0  0  0  0  0  0  0  0  0  0  0
    9.3920   -0.3370    0.6490 O   0  0  0  0  0  0  0  0  0  0  0  0
    9.2160    0.0750    1.8360 C   0  0  0  0  0  0  0  0  0  0  0  0
    8.8870    1.2450    2.2050 O   0  0  0  0  0  1  0  0  0  0  0  0
  1  9  1  0  0  0  0
  1  2  2  0  0  0  0
  3  1  1  0  0  0  0
  4  3  1  0  0  0  0
  5  4  2  0  0  0  0
  6  7  2  0  0  0  0
  6  5  1  0  0  0  0
  7  8  1  0  0  0  0
  8  3  2  0  0  0  0
  9 10  1  0  0  0  0
 10 11  2  0  0  0  0
 12 13  2  0  0  0  0
 13 14  1  0  0  0  0
 13 10  1  0  0  0  0
M  END
>  <minimizedAffinity>
-5.15822601

$$$$
