
 OpenBabel09122222393D

 39 44  0  0  1  0  0  0  0  0999 V2000
    3.3990  -10.8960    2.0430 C   0  0  0  0  0  0  0  0  0  0  0  0
    2.5110   -9.8320    2.2280 C   0  0  0  0  0  3  0  0  0  0  0  0
    2.8810   -8.7390    3.0170 C   0  0  0  0  0  3  0  0  0  0  0  0
    4.1220   -8.7120    3.6620 C   0  0  0  0  0  0  0  0  0  0  0  0
    5.0030   -9.7760    3.4940 C   0  0  0  0  0  3  0  0  0  0  0  0
    4.6370  -10.8560    2.6880 C   0  0  0  0  0  0  0  0  0  0  0  0
    5.5300  -11.8400    2.5050 F   0  0  0  0  0  0  0  0  0  0  0  0
    2.0070  -14.9560   -2.1300 C   0  0  0  0  0  0  0  0  0  0  0  0
    1.9110  -15.8280   -1.0340 C   0  0  0  0  0  3  0  0  0  0  0  0
    2.1460  -15.4050    0.2810 C   0  0  0  0  0  3  0  0  0  0  0  0
    2.4830  -14.0600    0.4770 C   0  0  0  0  0  0  0  0  0  0  0  0
    2.5900  -13.1660   -0.5860 C   0  0  0  0  0  0  0  0  0  0  0  0
    2.3510  -13.6100   -1.8970 C   0  0  0  0  0  3  0  0  0  0  0  0
    2.9490  -11.9160   -0.1410 N   0  0  0  0  0  0  0  0  0  0  0  0
    3.0300  -12.0050    1.1710 C   0  0  0  0  0  0  0  0  0  0  0  0
    2.7870  -13.3030    1.5910 N   0  0  0  0  0  0  0  0  0  0  0  0
    2.9140  -13.7860    2.9640 C   0  0  0  0  0  3  0  0  0  0  0  0
    1.6110  -14.3800    3.5200 C   0  0  0  0  0  2  0  0  0  0  0  0
    1.7810  -14.8180    4.9750 C   0  0  0  0  0  2  0  0  0  0  0  0
    2.9630  -15.7680    5.1460 C   0  0  0  0  0  2  0  0  0  0  0  0
    4.2570  -15.1640    4.6070 C   0  0  0  0  0  2  0  0  0  0  0  0
    4.1100  -14.7340    3.1490 C   0  0  0  0  0  2  0  0  0  0  0  0
    1.9490  -14.6370   -4.4900 O   0  0  0  0  0  0  0  0  0  0  0  0
    1.7480  -15.4570   -3.5370 C   0  0  0  0  0  0  0  0  0  0  0  0
    1.3470  -16.6560   -3.6660 O   0  0  0  0  0  1  0  0  0  0  0  0
    4.3890   -7.5630    4.3500 O   0  0  0  0  0  0  0  0  0  0  0  0
    4.7100   -6.3450    3.6430 C   0  0  1  0  0  3  0  0  0  0  0  0
    5.1360   -6.6010    2.2040 C   0  0  0  0  0  0  0  0  0  0  0  0
    4.2330   -6.3510    1.1580 C   0  0  0  0  0  3  0  0  0  0  0  0
    4.6140   -6.5670   -0.1630 C   0  0  0  0  0  3  0  0  0  0  0  0
    5.8930   -7.0320   -0.4060 C   0  0  0  0  0  3  0  0  0  0  0  0
    6.7930   -7.2840    0.5660 N   0  0  0  0  0  0  0  0  0  0  0  0
    6.4050   -7.0400    1.8400 C   0  0  0  0  0  3  0  0  0  0  0  0
    3.7950   -5.1650    3.9460 C   0  0  0  0  0  0  0  0  0  0  0  0
    4.1810   -3.8420    3.6830 C   0  0  0  0  0  3  0  0  0  0  0  0
    3.3350   -2.7830    4.0070 C   0  0  0  0  0  3  0  0  0  0  0  0
    2.1300   -3.0730    4.6190 C   0  0  0  0  0  3  0  0  0  0  0  0
    1.7370   -4.3230    4.9360 N   0  0  0  0  0  0  0  0  0  0  0  0
    2.5780   -5.3320    4.6060 C   0  0  0  0  0  3  0  0  0  0  0  0
  1  2  2  0  0  0  0
  1  6  1  0  0  0  0
  2  3  1  0  0  0  0
  3  4  2  0  0  0  0
  4 26  1  0  0  0  0
  5  4  1  0  0  0  0
  6  5  2  0  0  0  0
  7  6  1  0  0  0  0
  8 13  2  0  0  0  0
  8  9  1  0  0  0  0
  9 10  2  0  0  0  0
 10 11  1  0  0  0  0
 11 16  1  0  0  0  0
 12 14  1  0  0  0  0
 12 11  2  0  0  0  0
 13 12  1  0  0  0  0
 14 15  2  0  0  0  0
 15 16  1  0  0  0  0
 15  1  1  0  0  0  0
 16 17  1  0  0  0  0
 17 22  1  0  0  0  0
 17 18  1  0  0  0  0
 18 19  1  0  0  0  0
 19 20  1  0  0  0  0
 21 20  1  0  0  0  0
 22 21  1  0  0  0  0
 23 24  2  0  0  0  0
 24  8  1  0  0  0  0
 25 24  1  0  0  0  0
 27 34  1  0  0  0  0
 27 26  1  6  0  0  0
 28 27  1  0  0  0  0
 29 28  2  0  0  0  0
 30 29  1  0  0  0  0
 31 30  2  0  0  0  0
 31 32  1  0  0  0  0
 32 33  2  0  0  0  0
 33 28  1  0  0  0  0
 34 39  1  0  0  0  0
 35 34  2  0  0  0  0
 35 36  1  0  0  0  0
 36 37  2  0  0  0  0
 37 38  1  0  0  0  0
 39 38  2  0  0  0  0
M  END
>  <minimizedAffinity>
-8.50747967

$$$$
