
 OpenBabel09082221103D

 26 29  0  0  1  0  0  0  0  0999 V2000
    1.8740    1.5000    1.7380 C   0  0  0  0  0  0  0  0  0  0  0  0
    3.1630    0.9860    2.1090 C   0  0  0  0  0  3  0  0  0  0  0  0
    3.3230   -0.3560    1.8320 C   0  0  0  0  0  0  0  0  0  0  0  0
    1.9150   -0.9880    1.1000 S   0  0  0  0  0  0  0  0  0  0  0  0
    1.1300    0.5440    1.0680 C   0  0  0  0  0  0  0  0  0  0  0  0
    4.4730   -1.2240    2.1230 C   0  0  0  0  0  0  0  0  0  0  0  0
    4.7690   -1.6370    3.4310 C   0  0  0  0  0  3  0  0  0  0  0  0
    5.8590   -2.4730    3.6880 C   0  0  0  0  0  3  0  0  0  0  0  0
    6.6670   -2.9080    2.6390 C   0  0  0  0  0  3  0  0  0  0  0  0
    6.3850   -2.5090    1.3340 C   0  0  0  0  0  3  0  0  0  0  0  0
    5.2940   -1.6750    1.0780 C   0  0  0  0  0  3  0  0  0  0  0  0
    1.7540    4.1040    1.3830 N   0  0  0  0  0  0  0  0  0  0  0  0
    1.1450    5.1340    2.0470 N   0  0  0  0  0  0  0  0  0  0  0  0
    0.5120    4.6400    3.0980 N   0  0  0  0  0  0  0  0  0  0  0  0
    0.7100    3.2950    3.1040 C   0  0  0  0  0  3  0  0  0  0  0  0
    1.5000    2.9180    2.0390 C   0  0  0  0  0  0  0  0  0  0  0  0
    3.5330    4.7280   -4.1240 C   0  0  0  0  0  1  0  0  0  0  0  0
    3.0810    4.1280   -2.7940 C   0  0  1  0  0  3  0  0  0  0  0  0
    4.0470    4.5170   -1.6680 C   0  0  0  0  0  2  0  0  0  0  0  0
    3.5930    3.9710   -0.3130 C   0  0  0  0  0  2  0  0  0  0  0  0
    2.1510    4.4000    0.0100 C   0  0  1  0  0  3  0  0  0  0  0  0
    1.1860    4.0020   -1.1160 C   0  0  0  0  0  2  0  0  0  0  0  0
    1.6470    4.5650   -2.4640 C   0  0  0  0  0  2  0  0  0  0  0  0
   -0.1610    0.7360    0.3450 C   0  0  0  0  0  0  0  0  0  0  0  0
   -0.1270    0.7290   -0.9250 O   0  0  0  0  0  0  0  0  0  0  0  0
   -1.2050    0.8890    1.0490 O   0  0  0  0  0  1  0  0  0  0  0  0
  1 16  1  0  0  0  0
  1  2  1  0  0  0  0
  3  2  2  0  0  0  0
  3  6  1  0  0  0  0
  4  3  1  0  0  0  0
  5  4  1  0  0  0  0
  5  1  2  0  0  0  0
  6  7  1  0  0  0  0
  7  8  2  0  0  0  0
  9  8  1  0  0  0  0
 10  9  2  0  0  0  0
 11 10  1  0  0  0  0
 11  6  2  0  0  0  0
 12 16  1  0  0  0  0
 12 13  1  0  0  0  0
 13 14  2  0  0  0  0
 14 15  1  0  0  0  0
 16 15  2  0  0  0  0
 18 17  1  6  0  0  0
 18 23  1  0  0  0  0
 18 19  1  0  0  0  0
 19 20  1  0  0  0  0
 20 21  1  0  0  0  0
 21 22  1  6  0  0  0
 21 12  1  0  0  0  0
 23 22  1  0  0  0  0
 24 26  1  0  0  0  0
 24  5  1  0  0  0  0
 25 24  2  0  0  0  0
M  END
>  <minimizedAffinity>
-3.22812986

$$$$

 OpenBabel09082221103D

 26 29  0  0  1  0  0  0  0  0999 V2000
    4.3780   -1.7570    2.5400 C   0  0  0  0  0  0  0  0  0  0  0  0
    4.1440   -2.6700    1.4560 C   0  0  0  0  0  3  0  0  0  0  0  0
    5.2920   -3.0360    0.7830 C   0  0  0  0  0  0  0  0  0  0  0  0
    6.6590   -2.2900    1.4850 S   0  0  0  0  0  0  0  0  0  0  0  0
    5.7330   -1.5540    2.7370 C   0  0  0  0  0  0  0  0  0  0  0  0
    5.4300   -3.8970   -0.4000 C   0  0  0  0  0  0  0  0  0  0  0  0
    4.7750   -3.5990   -1.6040 C   0  0  0  0  0  3  0  0  0  0  0  0
    4.9270   -4.4230   -2.7230 C   0  0  0  0  0  3  0  0  0  0  0  0
    5.7390   -5.5530   -2.6540 C   0  0  0  0  0  3  0  0  0  0  0  0
    6.3990   -5.8610   -1.4650 C   0  0  0  0  0  3  0  0  0  0  0  0
    6.2470   -5.0360   -0.3470 C   0  0  0  0  0  3  0  0  0  0  0  0
    2.8530    0.0990    3.6130 N   0  0  0  0  0  0  0  0  0  0  0  0
    1.6930    0.0840    4.3380 N   0  0  0  0  0  0  0  0  0  0  0  0
    1.3260   -1.1740    4.5170 N   0  0  0  0  0  0  0  0  0  0  0  0
    2.2460   -1.9640    3.9020 C   0  0  0  0  0  3  0  0  0  0  0  0
    3.2350   -1.1940    3.3260 C   0  0  0  0  0  0  0  0  0  0  0  0
    3.5790    5.3210    1.1460 C   0  0  0  0  0  1  0  0  0  0  0  0
    2.9980    4.1390    1.9190 C   0  0  1  0  0  3  0  0  0  0  0  0
    2.8450    2.9160    1.0050 C   0  0  0  0  0  2  0  0  0  0  0  0
    2.3100    1.7000    1.7640 C   0  0  0  0  0  2  0  0  0  0  0  0
    3.1800    1.3790    2.9920 C   0  0  1  0  0  3  0  0  0  0  0  0
    3.3240    2.6030    3.9080 C   0  0  0  0  0  2  0  0  0  0  0  0
    3.8700    3.8080    3.1380 C   0  0  0  0  0  2  0  0  0  0  0  0
    6.3930   -0.8500    3.8750 C   0  0  0  0  0  0  0  0  0  0  0  0
    6.6440   -1.5310    4.9170 O   0  0  0  0  0  1  0  0  0  0  0  0
    6.6620    0.3790    3.7200 O   0  0  0  0  0  0  0  0  0  0  0  0
  1  5  2  0  0  0  0
  1 16  1  0  0  0  0
  2  1  1  0  0  0  0
  3  2  2  0  0  0  0
  3  4  1  0  0  0  0
  4  5  1  0  0  0  0
  5 24  1  0  0  0  0
  6 11  1  0  0  0  0
  6  3  1  0  0  0  0
  7  6  2  0  0  0  0
  8  9  2  0  0  0  0
  8  7  1  0  0  0  0
  9 10  1  0  0  0  0
 10 11  2  0  0  0  0
 12 13  1  0  0  0  0
 13 14  2  0  0  0  0
 15 14  1  0  0  0  0
 16 12  1  0  0  0  0
 16 15  2  0  0  0  0
 18 17  1  6  0  0  0
 18 23  1  0  0  0  0
 19 20  1  0  0  0  0
 19 18  1  0  0  0  0
 21 20  1  6  0  0  0
 21 12  1  0  0  0  0
 21 22  1  0  0  0  0
 23 22  1  0  0  0  0
 24 25  1  0  0  0  0
 26 24  2  0  0  0  0
M  END
>  <minimizedAffinity>
-3.16320252

$$$$

 OpenBabel09082221103D

 26 29  0  0  1  0  0  0  0  0999 V2000
    3.6010   -1.8450    1.6520 C   0  0  0  0  0  0  0  0  0  0  0  0
    3.5340   -2.6720    0.4790 C   0  0  0  0  0  3  0  0  0  0  0  0
    4.7720   -3.0490   -0.0030 C   0  0  0  0  0  0  0  0  0  0  0  0
    6.0150   -2.4170    0.9840 S   0  0  0  0  0  0  0  0  0  0  0  0
    4.9040   -1.7210    2.1010 C   0  0  0  0  0  0  0  0  0  0  0  0
    5.0900   -3.8350   -1.2020 C   0  0  0  0  0  0  0  0  0  0  0  0
    4.6560   -3.4400   -2.4760 C   0  0  0  0  0  3  0  0  0  0  0  0
    4.9790   -4.1940   -3.6080 C   0  0  0  0  0  3  0  0  0  0  0  0
    5.7440   -5.3520   -3.4810 C   0  0  0  0  0  3  0  0  0  0  0  0
    6.1850   -5.7570   -2.2230 C   0  0  0  0  0  3  0  0  0  0  0  0
    5.8620   -5.0010   -1.0910 C   0  0  0  0  0  3  0  0  0  0  0  0
    2.0120   -0.0060    2.6590 N   0  0  0  0  0  0  0  0  0  0  0  0
    0.7220   -0.0010    3.1160 N   0  0  0  0  0  0  0  0  0  0  0  0
    0.2360   -1.2280    3.0180 N   0  0  0  0  0  0  0  0  0  0  0  0
    1.2120   -2.0160    2.4930 C   0  0  0  0  0  3  0  0  0  0  0  0
    2.3560   -1.2810    2.2610 C   0  0  0  0  0  0  0  0  0  0  0  0
    3.6360    5.4350    1.3780 C   0  0  0  0  0  1  0  0  0  0  0  0
    2.8550    4.2260    1.8890 C   0  0  1  0  0  3  0  0  0  0  0  0
    2.5070    3.2780    0.7330 C   0  0  0  0  0  2  0  0  0  0  0  0
    1.7670    2.0310    1.2220 C   0  0  0  0  0  2  0  0  0  0  0  0
    2.5570    1.3060    2.3250 C   0  0  1  0  0  3  0  0  0  0  0  0
    2.8970    2.2560    3.4820 C   0  0  0  0  0  2  0  0  0  0  0  0
    3.6470    3.4930    2.9810 C   0  0  0  0  0  2  0  0  0  0  0  0
    5.3720   -1.1270    3.3870 C   0  0  0  0  0  0  0  0  0  0  0  0
    5.7510    0.0850    3.3680 O   0  0  0  0  0  0  0  0  0  0  0  0
    5.3550   -1.8730    4.4130 O   0  0  0  0  0  1  0  0  0  0  0  0
  1  5  2  0  0  0  0
  1 16  1  0  0  0  0
  2  1  1  0  0  0  0
  3  2  2  0  0  0  0
  3  4  1  0  0  0  0
  4  5  1  0  0  0  0
  5 24  1  0  0  0  0
  6 11  1  0  0  0  0
  6  3  1  0  0  0  0
  7  6  2  0  0  0  0
  8  9  2  0  0  0  0
  8  7  1  0  0  0  0
  9 10  1  0  0  0  0
 10 11  2  0  0  0  0
 12 13  1  0  0  0  0
 14 13  2  0  0  0  0
 15 14  1  0  0  0  0
 16 15  2  0  0  0  0
 16 12  1  0  0  0  0
 18 17  1  6  0  0  0
 18 23  1  0  0  0  0
 19 20  1  0  0  0  0
 19 18  1  0  0  0  0
 21 20  1  6  0  0  0
 21 12  1  0  0  0  0
 21 22  1  0  0  0  0
 23 22  1  0  0  0  0
 24 26  1  0  0  0  0
 25 24  2  0  0  0  0
M  END
>  <minimizedAffinity>
-3.12741041

$$$$

 OpenBabel09082221103D

 26 29  0  0  1  0  0  0  0  0999 V2000
    5.3310   -2.8800    1.5780 C   0  0  0  0  0  0  0  0  0  0  0  0
    5.2640   -2.7780    0.1470 C   0  0  0  0  0  3  0  0  0  0  0  0
    5.2070   -4.0000   -0.4930 C   0  0  0  0  0  0  0  0  0  0  0  0
    5.2090   -5.2720    0.6480 S   0  0  0  0  0  0  0  0  0  0  0  0
    5.1950   -4.1940    1.9910 C   0  0  0  0  0  0  0  0  0  0  0  0
    5.1880   -4.2830   -1.9340 C   0  0  0  0  0  0  0  0  0  0  0  0
    4.4940   -3.4620   -2.8350 C   0  0  0  0  0  3  0  0  0  0  0  0
    4.4970   -3.7390   -4.2050 C   0  0  0  0  0  3  0  0  0  0  0  0
    5.1990   -4.8400   -4.6930 C   0  0  0  0  0  3  0  0  0  0  0  0
    5.8970   -5.6630   -3.8120 C   0  0  0  0  0  3  0  0  0  0  0  0
    5.8930   -5.3850   -2.4420 C   0  0  0  0  0  3  0  0  0  0  0  0
    4.5790   -0.6950    2.8340 N   0  0  0  0  0  0  0  0  0  0  0  0
    5.2080    0.2050    3.6510 N   0  0  0  0  0  0  0  0  0  0  0  0
    6.4750   -0.1550    3.7760 N   0  0  0  0  0  0  0  0  0  0  0  0
    6.6550   -1.2870    3.0450 C   0  0  0  0  0  3  0  0  0  0  0  0
    5.4790   -1.6560    2.4260 C   0  0  0  0  0  0  0  0  0  0  0  0
   -1.2300   -1.0360    2.6740 C   0  0  0  0  0  1  0  0  0  0  0  0
    0.2570   -1.3390    2.4940 C   0  0  1  0  0  3  0  0  0  0  0  0
    0.9430   -0.2230    1.6950 C   0  0  0  0  0  2  0  0  0  0  0  0
    2.4450   -0.4740    1.5410 C   0  0  0  0  0  2  0  0  0  0  0  0
    3.1210   -0.6840    2.9060 C   0  0  1  0  0  3  0  0  0  0  0  0
    2.4350   -1.8060    3.7000 C   0  0  0  0  0  2  0  0  0  0  0  0
    0.9370   -1.5370    3.8560 C   0  0  0  0  0  2  0  0  0  0  0  0
    5.0040   -4.6970    3.3830 C   0  0  0  0  0  0  0  0  0  0  0  0
    3.8380   -5.0750    3.7140 O   0  0  0  0  0  0  0  0  0  0  0  0
    6.0230   -4.7160    4.1380 O   0  0  0  0  0  1  0  0  0  0  0  0
  1  5  2  0  0  0  0
  1 16  1  0  0  0  0
  2  1  1  0  0  0  0
  3  2  2  0  0  0  0
  3  4  1  0  0  0  0
  4  5  1  0  0  0  0
  5 24  1  0  0  0  0
  6  3  1  0  0  0  0
  7  6  2  0  0  0  0
  8  7  1  0  0  0  0
  9  8  2  0  0  0  0
  9 10  1  0  0  0  0
 10 11  2  0  0  0  0
 11  6  1  0  0  0  0
 12 21  1  0  0  0  0
 12 13  1  0  0  0  0
 13 14  2  0  0  0  0
 15 14  1  0  0  0  0
 16 12  1  0  0  0  0
 16 15  2  0  0  0  0
 18 17  1  1  0  0  0
 18 23  1  0  0  0  0
 19 18  1  0  0  0  0
 20 19  1  0  0  0  0
 21 20  1  6  0  0  0
 21 22  1  0  0  0  0
 22 23  1  0  0  0  0
 24 25  2  0  0  0  0
 24 26  1  0  0  0  0
M  END
>  <minimizedAffinity>
-3.10820079

$$$$

 OpenBabel09082221103D

 26 29  0  0  1  0  0  0  0  0999 V2000
    4.1440   -1.3570    3.1760 C   0  0  0  0  0  0  0  0  0  0  0  0
    3.9870   -2.3390    2.1400 C   0  0  0  0  0  3  0  0  0  0  0  0
    5.1580   -2.6280    1.4690 C   0  0  0  0  0  0  0  0  0  0  0  0
    6.4550   -1.7220    2.1150 S   0  0  0  0  0  0  0  0  0  0  0  0
    5.4750   -1.0180    3.3440 C   0  0  0  0  0  0  0  0  0  0  0  0
    5.3650   -3.5280    0.3260 C   0  0  0  0  0  0  0  0  0  0  0  0
    4.7180   -3.3170   -0.9010 C   0  0  0  0  0  3  0  0  0  0  0  0
    4.9370   -4.1760   -1.9810 C   0  0  0  0  0  3  0  0  0  0  0  0
    5.8070   -5.2560   -1.8500 C   0  0  0  0  0  3  0  0  0  0  0  0
    6.4600   -5.4770   -0.6390 C   0  0  0  0  0  3  0  0  0  0  0  0
    6.2420   -4.6170    0.4410 C   0  0  0  0  0  3  0  0  0  0  0  0
    2.3470    0.3650    4.0300 N   0  0  0  0  0  0  0  0  0  0  0  0
    1.2580    0.2820    4.8540 N   0  0  0  0  0  0  0  0  0  0  0  0
    1.1590   -0.9600    5.2970 N   0  0  0  0  0  0  0  0  0  0  0  0
    2.1800   -1.6740    4.7530 C   0  0  0  0  0  3  0  0  0  0  0  0
    2.9610   -0.8680    3.9520 C   0  0  0  0  0  0  0  0  0  0  0  0
    3.0180    4.8710    0.4080 C   0  0  0  0  0  1  0  0  0  0  0  0
    3.1920    3.5310    1.1200 C   0  0  1  0  0  3  0  0  0  0  0  0
    3.4840    3.7460    2.6110 C   0  0  0  0  0  2  0  0  0  0  0  0
    3.6160    2.4190    3.3630 C   0  0  0  0  0  2  0  0  0  0  0  0
    2.3760    1.5320    3.1550 C   0  0  1  0  0  3  0  0  0  0  0  0
    2.0910    1.3150    1.6620 C   0  0  0  0  0  2  0  0  0  0  0  0
    1.9520    2.6490    0.9250 C   0  0  0  0  0  2  0  0  0  0  0  0
    6.0770   -0.2010    4.4380 C   0  0  0  0  0  0  0  0  0  0  0  0
    6.6600    0.8780    4.1090 O   0  0  0  0  0  0  0  0  0  0  0  0
    5.9600   -0.6400    5.6220 O   0  0  0  0  0  1  0  0  0  0  0  0
  1  5  2  0  0  0  0
  1 16  1  0  0  0  0
  2  1  1  0  0  0  0
  3  4  1  0  0  0  0
  3  2  2  0  0  0  0
  4  5  1  0  0  0  0
  5 24  1  0  0  0  0
  6 11  1  0  0  0  0
  6  3  1  0  0  0  0
  7  6  2  0  0  0  0
  8  9  2  0  0  0  0
  8  7  1  0  0  0  0
  9 10  1  0  0  0  0
 10 11  2  0  0  0  0
 12 13  1  0  0  0  0
 13 14  2  0  0  0  0
 15 14  1  0  0  0  0
 16 12  1  0  0  0  0
 16 15  2  0  0  0  0
 18 17  1  6  0  0  0
 18 19  1  0  0  0  0
 19 20  1  0  0  0  0
 21 22  1  6  0  0  0
 21 20  1  0  0  0  0
 21 12  1  0  0  0  0
 23 18  1  0  0  0  0
 23 22  1  0  0  0  0
 24 26  1  0  0  0  0
 25 24  2  0  0  0  0
M  END
>  <minimizedAffinity>
-2.95931649

$$$$

 OpenBabel09082221103D

 26 29  0  0  1  0  0  0  0  0999 V2000
    5.1220   -4.1710   -0.5490 C   0  0  0  0  0  0  0  0  0  0  0  0
    5.6450   -5.4080   -0.0380 C   0  0  0  0  0  3  0  0  0  0  0  0
    5.4560   -6.4800   -0.8870 C   0  0  0  0  0  0  0  0  0  0  0  0
    4.6630   -5.9800   -2.3150 S   0  0  0  0  0  0  0  0  0  0  0  0
    4.6560   -4.3240   -1.8430 C   0  0  0  0  0  0  0  0  0  0  0  0
    5.8030   -7.8920   -0.6740 C   0  0  0  0  0  0  0  0  0  0  0  0
    5.6490   -8.8470   -1.6910 C   0  0  0  0  0  3  0  0  0  0  0  0
    5.9960  -10.1840   -1.4760 C   0  0  0  0  0  3  0  0  0  0  0  0
    6.5040  -10.5830   -0.2410 C   0  0  0  0  0  3  0  0  0  0  0  0
    6.6660   -9.6470    0.7780 C   0  0  0  0  0  3  0  0  0  0  0  0
    6.3200   -8.3100    0.5610 C   0  0  0  0  0  3  0  0  0  0  0  0
    4.1860   -2.0650    0.7210 N   0  0  0  0  0  0  0  0  0  0  0  0
    4.7490   -1.0840    1.4900 N   0  0  0  0  0  0  0  0  0  0  0  0
    6.0530   -1.2920    1.5510 N   0  0  0  0  0  0  0  0  0  0  0  0
    6.3260   -2.4090    0.8250 C   0  0  0  0  0  3  0  0  0  0  0  0
    5.1700   -2.9230    0.2750 C   0  0  0  0  0  0  0  0  0  0  0  0
   -1.4830   -2.6440    1.9050 C   0  0  0  0  0  1  0  0  0  0  0  0
    0.0040   -2.3090    2.0070 C   0  0  1  0  0  3  0  0  0  0  0  0
    0.8540   -3.5800    1.8780 C   0  0  0  0  0  2  0  0  0  0  0  0
    2.3520   -3.2710    1.9280 C   0  0  0  0  0  2  0  0  0  0  0  0
    2.7430   -2.2230    0.8720 C   0  0  1  0  0  3  0  0  0  0  0  0
    1.8950   -0.9500    1.0090 C   0  0  0  0  0  2  0  0  0  0  0  0
    0.4000   -1.2730    0.9470 C   0  0  0  0  0  2  0  0  0  0  0  0
    4.2310   -3.2520   -2.7910 C   0  0  0  0  0  0  0  0  0  0  0  0
    5.1060   -2.8010   -3.5940 O   0  0  0  0  0  0  0  0  0  0  0  0
    3.0230   -2.8700   -2.7320 O   0  0  0  0  0  1  0  0  0  0  0  0
  1  2  1  0  0  0  0
  1 16  1  0  0  0  0
  3  6  1  0  0  0  0
  3  2  2  0  0  0  0
  4  5  1  0  0  0  0
  4  3  1  0  0  0  0
  5  1  2  0  0  0  0
  6 11  1  0  0  0  0
  7  8  1  0  0  0  0
  7  6  2  0  0  0  0
  8  9  2  0  0  0  0
  9 10  1  0  0  0  0
 11 10  2  0  0  0  0
 12 13  1  0  0  0  0
 13 14  2  0  0  0  0
 15 14  1  0  0  0  0
 16 12  1  0  0  0  0
 16 15  2  0  0  0  0
 18 17  1  6  0  0  0
 19 20  1  0  0  0  0
 19 18  1  0  0  0  0
 21 12  1  1  0  0  0
 21 22  1  0  0  0  0
 21 20  1  0  0  0  0
 23 22  1  0  0  0  0
 23 18  1  0  0  0  0
 24 26  1  0  0  0  0
 24  5  1  0  0  0  0
 25 24  2  0  0  0  0
M  END
>  <minimizedAffinity>
-2.94041276

$$$$

 OpenBabel09082221103D

 26 29  0  0  1  0  0  0  0  0999 V2000
    2.4100   -3.2220    0.8860 C   0  0  0  0  0  0  0  0  0  0  0  0
    2.2720   -4.5210    1.4840 C   0  0  0  0  0  3  0  0  0  0  0  0
    0.9860   -5.0180    1.4360 C   0  0  0  0  0  0  0  0  0  0  0  0
   -0.0520   -3.9170    0.6420 S   0  0  0  0  0  0  0  0  0  0  0  0
    1.2290   -2.8230    0.2830 C   0  0  0  0  0  0  0  0  0  0  0  0
    0.4650   -6.2740    1.9930 C   0  0  0  0  0  0  0  0  0  0  0  0
   -0.8490   -6.6980    1.7450 C   0  0  0  0  0  3  0  0  0  0  0  0
   -1.3240   -7.9020    2.2730 C   0  0  0  0  0  3  0  0  0  0  0  0
   -0.4900   -8.7000    3.0530 C   0  0  0  0  0  3  0  0  0  0  0  0
    0.8180   -8.2940    3.3070 C   0  0  0  0  0  3  0  0  0  0  0  0
    1.2930   -7.0900    2.7780 C   0  0  0  0  0  3  0  0  0  0  0  0
    4.9310   -2.7420    0.3070 N   0  0  0  0  0  0  0  0  0  0  0  0
    5.8130   -1.7460    0.6250 N   0  0  0  0  0  0  0  0  0  0  0  0
    5.2020   -0.8790    1.4160 N   0  0  0  0  0  0  0  0  0  0  0  0
    3.9280   -1.3160    1.5990 C   0  0  0  0  0  3  0  0  0  0  0  0
    3.7200   -2.4990    0.9200 C   0  0  0  0  0  0  0  0  0  0  0  0
    6.0090   -6.3640   -4.1200 C   0  0  0  0  0  1  0  0  0  0  0  0
    5.3470   -5.6580   -2.9380 C   0  0  1  0  0  3  0  0  0  0  0  0
    6.2300   -5.7540   -1.6870 C   0  0  0  0  0  2  0  0  0  0  0  0
    5.6150   -5.0130   -0.4970 C   0  0  0  0  0  2  0  0  0  0  0  0
    5.2990   -3.5500   -0.8520 C   0  0  1  0  0  3  0  0  0  0  0  0
    4.4100   -3.4590   -2.1000 C   0  0  0  0  0  2  0  0  0  0  0  0
    5.0420   -4.1950   -3.2840 C   0  0  0  0  0  2  0  0  0  0  0  0
    1.0140   -1.6500   -0.6130 C   0  0  0  0  0  0  0  0  0  0  0  0
    1.1200   -1.8410   -1.8640 O   0  0  0  0  0  0  0  0  0  0  0  0
    0.7360   -0.5420   -0.0620 O   0  0  0  0  0  1  0  0  0  0  0  0
  1 16  1  0  0  0  0
  1  2  1  0  0  0  0
  3  2  2  0  0  0  0
  3  6  1  0  0  0  0
  4  3  1  0  0  0  0
  5  4  1  0  0  0  0
  5  1  2  0  0  0  0
  6 11  1  0  0  0  0
  7  6  2  0  0  0  0
  7  8  1  0  0  0  0
  8  9  2  0  0  0  0
  9 10  1  0  0  0  0
 11 10  2  0  0  0  0
 12 13  1  0  0  0  0
 12 16  1  0  0  0  0
 13 14  2  0  0  0  0
 14 15  1  0  0  0  0
 16 15  2  0  0  0  0
 18 17  1  6  0  0  0
 18 19  1  0  0  0  0
 19 20  1  0  0  0  0
 21 22  1  6  0  0  0
 21 20  1  0  0  0  0
 21 12  1  0  0  0  0
 23 18  1  0  0  0  0
 23 22  1  0  0  0  0
 24 26  1  0  0  0  0
 24  5  1  0  0  0  0
 25 24  2  0  0  0  0
M  END
>  <minimizedAffinity>
-2.92919612

$$$$

 OpenBabel09082221103D

 26 29  0  0  1  0  0  0  0  0999 V2000
    2.2410    1.9620    1.5610 C   0  0  0  0  0  0  0  0  0  0  0  0
    3.2630    1.0220    1.9310 C   0  0  0  0  0  3  0  0  0  0  0  0
    2.8880   -0.2960    1.7640 C   0  0  0  0  0  0  0  0  0  0  0  0
    1.3020   -0.3910    1.1350 S   0  0  0  0  0  0  0  0  0  0  0  0
    1.1510    1.3190    1.0000 C   0  0  0  0  0  0  0  0  0  0  0  0
    3.6420   -1.5140    2.0890 C   0  0  0  0  0  0  0  0  0  0  0  0
    3.6510   -2.6230    1.2290 C   0  0  0  0  0  3  0  0  0  0  0  0
    4.3850   -3.7690    1.5480 C   0  0  0  0  0  3  0  0  0  0  0  0
    5.1220   -3.8200    2.7300 C   0  0  0  0  0  3  0  0  0  0  0  0
    5.1260   -2.7260    3.5920 C   0  0  0  0  0  3  0  0  0  0  0  0
    4.3930   -1.5800    3.2720 C   0  0  0  0  0  3  0  0  0  0  0  0
    2.8280    4.4370    0.8880 N   0  0  0  0  0  0  0  0  0  0  0  0
    2.8250    5.6350    1.5490 N   0  0  0  0  0  0  0  0  0  0  0  0
    2.4540    5.4240    2.8010 N   0  0  0  0  0  0  0  0  0  0  0  0
    2.2140    4.0930    2.9400 C   0  0  0  0  0  3  0  0  0  0  0  0
    2.4490    3.4320    1.7530 C   0  0  0  0  0  0  0  0  0  0  0  0
    3.0080    5.3620   -4.8560 C   0  0  0  0  0  1  0  0  0  0  0  0
    3.2510    5.4650   -3.3520 C   0  0  1  0  0  3  0  0  0  0  0  0
    1.9370    5.7450   -2.6090 C   0  0  0  0  0  2  0  0  0  0  0  0
    2.1410    5.8060   -1.0940 C   0  0  0  0  0  2  0  0  0  0  0  0
    2.8220    4.5310   -0.5690 C   0  0  1  0  0  3  0  0  0  0  0  0
    4.1390    4.2580   -1.3090 C   0  0  0  0  0  2  0  0  0  0  0  0
    3.9190    4.1890   -2.8220 C   0  0  0  0  0  2  0  0  0  0  0  0
   -0.0150    1.9400    0.3060 C   0  0  0  0  0  0  0  0  0  0  0  0
    0.0970    2.1660   -0.9380 O   0  0  0  0  0  0  0  0  0  0  0  0
   -1.0400    2.1940    1.0080 O   0  0  0  0  0  1  0  0  0  0  0  0
  1 16  1  0  0  0  0
  1  2  1  0  0  0  0
  3  2  2  0  0  0  0
  3  6  1  0  0  0  0
  4  3  1  0  0  0  0
  5  4  1  0  0  0  0
  5  1  2  0  0  0  0
  6 11  1  0  0  0  0
  7  8  1  0  0  0  0
  7  6  2  0  0  0  0
  8  9  2  0  0  0  0
  9 10  1  0  0  0  0
 11 10  2  0  0  0  0
 12 13  1  0  0  0  0
 12 16  1  0  0  0  0
 13 14  2  0  0  0  0
 14 15  1  0  0  0  0
 16 15  2  0  0  0  0
 18 17  1  6  0  0  0
 18 23  1  0  0  0  0
 18 19  1  0  0  0  0
 19 20  1  0  0  0  0
 20 21  1  0  0  0  0
 21 22  1  1  0  0  0
 21 12  1  0  0  0  0
 23 22  1  0  0  0  0
 24  5  1  0  0  0  0
 24 26  1  0  0  0  0
 25 24  2  0  0  0  0
M  END
>  <minimizedAffinity>
-2.8973341

$$$$

 OpenBabel09082221103D

 26 29  0  0  1  0  0  0  0  0999 V2000
    1.9640   -3.9890   -2.2970 C   0  0  0  0  0  0  0  0  0  0  0  0
    1.5330   -5.3250   -1.9920 C   0  0  0  0  0  3  0  0  0  0  0  0
    1.8990   -6.2550   -2.9450 C   0  0  0  0  0  0  0  0  0  0  0  0
    2.7870   -5.5080   -4.1990 S   0  0  0  0  0  0  0  0  0  0  0  0
    2.7630   -3.9690   -3.4280 C   0  0  0  0  0  0  0  0  0  0  0  0
    1.5850   -7.6900   -2.9970 C   0  0  0  0  0  0  0  0  0  0  0  0
    0.7010   -8.2810   -2.0820 C   0  0  0  0  0  3  0  0  0  0  0  0
    0.4050   -9.6450   -2.1530 C   0  0  0  0  0  3  0  0  0  0  0  0
    0.9850  -10.4350   -3.1440 C   0  0  0  0  0  3  0  0  0  0  0  0
    1.8620   -9.8620   -4.0620 C   0  0  0  0  0  3  0  0  0  0  0  0
    2.1580   -8.4970   -3.9900 C   0  0  0  0  0  3  0  0  0  0  0  0
    1.9980   -2.4690   -0.1500 N   0  0  0  0  0  0  0  0  0  0  0  0
    1.3810   -1.3000    0.2050 N   0  0  0  0  0  0  0  0  0  0  0  0
    0.5960   -0.9200   -0.7900 N   0  0  0  0  0  0  0  0  0  0  0  0
    0.7140   -1.8410   -1.7830 C   0  0  0  0  0  3  0  0  0  0  0  0
    1.5860   -2.8430   -1.4120 C   0  0  0  0  0  0  0  0  0  0  0  0
    6.6650   -4.3800    2.7560 C   0  0  0  0  0  1  0  0  0  0  0  0
    5.5450   -4.2290    1.7280 C   0  0  1  0  0  3  0  0  0  0  0  0
    4.1720   -4.3340    2.4050 C   0  0  0  0  0  2  0  0  0  0  0  0
    3.0280   -4.1380    1.4080 C   0  0  0  0  0  2  0  0  0  0  0  0
    3.1760   -2.8140    0.6390 C   0  0  1  0  0  3  0  0  0  0  0  0
    4.5480   -2.7150   -0.0420 C   0  0  0  0  0  2  0  0  0  0  0  0
    5.6820   -2.9030    0.9690 C   0  0  0  0  0  2  0  0  0  0  0  0
    3.5700   -2.8290   -3.9530 C   0  0  0  0  0  0  0  0  0  0  0  0
    4.7940   -2.7760   -3.6190 O   0  0  0  0  0  1  0  0  0  0  0  0
    2.9770   -1.9940   -4.7010 O   0  0  0  0  0  0  0  0  0  0  0  0
  1  2  1  0  0  0  0
  1 16  1  0  0  0  0
  3  2  2  0  0  0  0
  4  5  1  0  0  0  0
  4  3  1  0  0  0  0
  5  1  2  0  0  0  0
  6  3  1  0  0  0  0
  6  7  1  0  0  0  0
  8  7  2  0  0  0  0
  9  8  1  0  0  0  0
 10 11  1  0  0  0  0
 10  9  2  0  0  0  0
 11  6  2  0  0  0  0
 12 13  1  0  0  0  0
 14 13  2  0  0  0  0
 15 16  2  0  0  0  0
 15 14  1  0  0  0  0
 16 12  1  0  0  0  0
 18 19  1  0  0  0  0
 18 17  1  1  0  0  0
 20 19  1  0  0  0  0
 21 12  1  6  0  0  0
 21 20  1  0  0  0  0
 22 21  1  0  0  0  0
 22 23  1  0  0  0  0
 23 18  1  0  0  0  0
 24 25  1  0  0  0  0
 24  5  1  0  0  0  0
 26 24  2  0  0  0  0
M  END
>  <minimizedAffinity>
-2.89464402

$$$$

 OpenBabel09082221103D

 26 29  0  0  1  0  0  0  0  0999 V2000
    4.3580   -2.8130    1.2920 C   0  0  0  0  0  0  0  0  0  0  0  0
    4.9850   -2.8790    0.0010 C   0  0  0  0  0  3  0  0  0  0  0  0
    4.6990   -4.0360   -0.6950 C   0  0  0  0  0  0  0  0  0  0  0  0
    3.6480   -5.0330    0.2110 S   0  0  0  0  0  0  0  0  0  0  0  0
    3.5030   -3.8840    1.4850 C   0  0  0  0  0  0  0  0  0  0  0  0
    5.2040   -4.4690   -2.0050 C   0  0  0  0  0  0  0  0  0  0  0  0
    4.7610   -3.8740   -3.1960 C   0  0  0  0  0  3  0  0  0  0  0  0
    5.2610   -4.2910   -4.4330 C   0  0  0  0  0  3  0  0  0  0  0  0
    6.2130   -5.3060   -4.4950 C   0  0  0  0  0  3  0  0  0  0  0  0
    6.6660   -5.9050   -3.3210 C   0  0  0  0  0  3  0  0  0  0  0  0
    6.1660   -5.4870   -2.0840 C   0  0  0  0  0  3  0  0  0  0  0  0
    4.0820   -0.3990    2.3010 N   0  0  0  0  0  0  0  0  0  0  0  0
    4.6380    0.2640    3.3610 N   0  0  0  0  0  0  0  0  0  0  0  0
    5.5090   -0.5380    3.9490 N   0  0  0  0  0  0  0  0  0  0  0  0
    5.5080   -1.7160    3.2710 C   0  0  0  0  0  3  0  0  0  0  0  0
    4.6240   -1.6650    2.2130 C   0  0  0  0  0  0  0  0  0  0  0  0
   -1.0550    1.9100    0.8350 C   0  0  0  0  0  1  0  0  0  0  0  0
    0.1840    1.4840    1.6190 C   0  0  1  0  0  3  0  0  0  0  0  0
    0.3200   -0.0450    1.6270 C   0  0  0  0  0  2  0  0  0  0  0  0
    1.5800   -0.5010    2.3650 C   0  0  0  0  0  2  0  0  0  0  0  0
    2.8390    0.1720    1.7930 C   0  0  1  0  0  3  0  0  0  0  0  0
    2.7020    1.7020    1.7930 C   0  0  0  0  0  2  0  0  0  0  0  0
    1.4440    2.1440    1.0430 C   0  0  0  0  0  2  0  0  0  0  0  0
    2.5190   -4.0770    2.5900 C   0  0  0  0  0  0  0  0  0  0  0  0
    2.9760   -4.3950    3.7320 O   0  0  0  0  0  1  0  0  0  0  0  0
    1.2930   -3.9040    2.3130 O   0  0  0  0  0  0  0  0  0  0  0  0
  1  5  2  0  0  0  0
  1 16  1  0  0  0  0
  2  1  1  0  0  0  0
  3  2  2  0  0  0  0
  3  4  1  0  0  0  0
  4  5  1  0  0  0  0
  5 24  1  0  0  0  0
  6  3  1  0  0  0  0
  7  6  2  0  0  0  0
  8  7  1  0  0  0  0
  9  8  2  0  0  0  0
  9 10  1  0  0  0  0
 10 11  2  0  0  0  0
 11  6  1  0  0  0  0
 12 13  1  0  0  0  0
 13 14  2  0  0  0  0
 15 14  1  0  0  0  0
 16 12  1  0  0  0  0
 16 15  2  0  0  0  0
 18 17  1  6  0  0  0
 18 19  1  0  0  0  0
 19 20  1  0  0  0  0
 21 22  1  1  0  0  0
 21 12  1  0  0  0  0
 21 20  1  0  0  0  0
 23 18  1  0  0  0  0
 23 22  1  0  0  0  0
 24 25  1  0  0  0  0
 26 24  2  0  0  0  0
M  END
>  <minimizedAffinity>
-2.87688947

$$$$
