
 OpenBabel09092210413D

 26 29  0  0  1  0  0  0  0  0999 V2000
    4.1440   -1.3570    3.1760 C   0  0  0  0  0  0  0  0  0  0  0  0
    3.9870   -2.3390    2.1400 C   0  0  0  0  0  3  0  0  0  0  0  0
    5.1580   -2.6280    1.4690 C   0  0  0  0  0  0  0  0  0  0  0  0
    6.4550   -1.7220    2.1150 S   0  0  0  0  0  0  0  0  0  0  0  0
    5.4750   -1.0180    3.3440 C   0  0  0  0  0  0  0  0  0  0  0  0
    5.3650   -3.5280    0.3260 C   0  0  0  0  0  0  0  0  0  0  0  0
    4.7180   -3.3170   -0.9010 C   0  0  0  0  0  3  0  0  0  0  0  0
    4.9370   -4.1760   -1.9810 C   0  0  0  0  0  3  0  0  0  0  0  0
    5.8070   -5.2560   -1.8500 C   0  0  0  0  0  3  0  0  0  0  0  0
    6.4600   -5.4770   -0.6390 C   0  0  0  0  0  3  0  0  0  0  0  0
    6.2420   -4.6170    0.4410 C   0  0  0  0  0  3  0  0  0  0  0  0
    2.3470    0.3650    4.0300 N   0  0  0  0  0  0  0  0  0  0  0  0
    1.2580    0.2820    4.8540 N   0  0  0  0  0  0  0  0  0  0  0  0
    1.1590   -0.9600    5.2970 N   0  0  0  0  0  0  0  0  0  0  0  0
    2.1800   -1.6740    4.7530 C   0  0  0  0  0  3  0  0  0  0  0  0
    2.9610   -0.8680    3.9520 C   0  0  0  0  0  0  0  0  0  0  0  0
    3.0180    4.8710    0.4080 C   0  0  0  0  0  1  0  0  0  0  0  0
    3.1920    3.5310    1.1200 C   0  0  1  0  0  3  0  0  0  0  0  0
    3.4840    3.7460    2.6110 C   0  0  0  0  0  2  0  0  0  0  0  0
    3.6160    2.4190    3.3630 C   0  0  0  0  0  2  0  0  0  0  0  0
    2.3760    1.5320    3.1550 C   0  0  1  0  0  3  0  0  0  0  0  0
    2.0910    1.3150    1.6620 C   0  0  0  0  0  2  0  0  0  0  0  0
    1.9520    2.6490    0.9250 C   0  0  0  0  0  2  0  0  0  0  0  0
    6.0770   -0.2010    4.4380 C   0  0  0  0  0  0  0  0  0  0  0  0
    6.6600    0.8780    4.1090 O   0  0  0  0  0  0  0  0  0  0  0  0
    5.9600   -0.6400    5.6220 O   0  0  0  0  0  1  0  0  0  0  0  0
  1  5  2  0  0  0  0
  1 16  1  0  0  0  0
  2  1  1  0  0  0  0
  3  4  1  0  0  0  0
  3  2  2  0  0  0  0
  4  5  1  0  0  0  0
  5 24  1  0  0  0  0
  6 11  1  0  0  0  0
  6  3  1  0  0  0  0
  7  6  2  0  0  0  0
  8  9  2  0  0  0  0
  8  7  1  0  0  0  0
  9 10  1  0  0  0  0
 10 11  2  0  0  0  0
 12 13  1  0  0  0  0
 13 14  2  0  0  0  0
 15 14  1  0  0  0  0
 16 12  1  0  0  0  0
 16 15  2  0  0  0  0
 18 17  1  6  0  0  0
 18 19  1  0  0  0  0
 19 20  1  0  0  0  0
 21 22  1  6  0  0  0
 21 20  1  0  0  0  0
 21 12  1  0  0  0  0
 23 18  1  0  0  0  0
 23 22  1  0  0  0  0
 24 26  1  0  0  0  0
 25 24  2  0  0  0  0
M  END
>  <minimizedAffinity>
-2.95931649

$$$$
