
 OpenBabel09092210413D

 26 29  0  0  1  0  0  0  0  0999 V2000
    1.9640   -3.9890   -2.2970 C   0  0  0  0  0  0  0  0  0  0  0  0
    1.5330   -5.3250   -1.9920 C   0  0  0  0  0  3  0  0  0  0  0  0
    1.8990   -6.2550   -2.9450 C   0  0  0  0  0  0  0  0  0  0  0  0
    2.7870   -5.5080   -4.1990 S   0  0  0  0  0  0  0  0  0  0  0  0
    2.7630   -3.9690   -3.4280 C   0  0  0  0  0  0  0  0  0  0  0  0
    1.5850   -7.6900   -2.9970 C   0  0  0  0  0  0  0  0  0  0  0  0
    0.7010   -8.2810   -2.0820 C   0  0  0  0  0  3  0  0  0  0  0  0
    0.4050   -9.6450   -2.1530 C   0  0  0  0  0  3  0  0  0  0  0  0
    0.9850  -10.4350   -3.1440 C   0  0  0  0  0  3  0  0  0  0  0  0
    1.8620   -9.8620   -4.0620 C   0  0  0  0  0  3  0  0  0  0  0  0
    2.1580   -8.4970   -3.9900 C   0  0  0  0  0  3  0  0  0  0  0  0
    1.9980   -2.4690   -0.1500 N   0  0  0  0  0  0  0  0  0  0  0  0
    1.3810   -1.3000    0.2050 N   0  0  0  0  0  0  0  0  0  0  0  0
    0.5960   -0.9200   -0.7900 N   0  0  0  0  0  0  0  0  0  0  0  0
    0.7140   -1.8410   -1.7830 C   0  0  0  0  0  3  0  0  0  0  0  0
    1.5860   -2.8430   -1.4120 C   0  0  0  0  0  0  0  0  0  0  0  0
    6.6650   -4.3800    2.7560 C   0  0  0  0  0  1  0  0  0  0  0  0
    5.5450   -4.2290    1.7280 C   0  0  1  0  0  3  0  0  0  0  0  0
    4.1720   -4.3340    2.4050 C   0  0  0  0  0  2  0  0  0  0  0  0
    3.0280   -4.1380    1.4080 C   0  0  0  0  0  2  0  0  0  0  0  0
    3.1760   -2.8140    0.6390 C   0  0  1  0  0  3  0  0  0  0  0  0
    4.5480   -2.7150   -0.0420 C   0  0  0  0  0  2  0  0  0  0  0  0
    5.6820   -2.9030    0.9690 C   0  0  0  0  0  2  0  0  0  0  0  0
    3.5700   -2.8290   -3.9530 C   0  0  0  0  0  0  0  0  0  0  0  0
    4.7940   -2.7760   -3.6190 O   0  0  0  0  0  1  0  0  0  0  0  0
    2.9770   -1.9940   -4.7010 O   0  0  0  0  0  0  0  0  0  0  0  0
  1  2  1  0  0  0  0
  1 16  1  0  0  0  0
  3  2  2  0  0  0  0
  4  5  1  0  0  0  0
  4  3  1  0  0  0  0
  5  1  2  0  0  0  0
  6  3  1  0  0  0  0
  6  7  1  0  0  0  0
  8  7  2  0  0  0  0
  9  8  1  0  0  0  0
 10 11  1  0  0  0  0
 10  9  2  0  0  0  0
 11  6  2  0  0  0  0
 12 13  1  0  0  0  0
 14 13  2  0  0  0  0
 15 16  2  0  0  0  0
 15 14  1  0  0  0  0
 16 12  1  0  0  0  0
 18 19  1  0  0  0  0
 18 17  1  1  0  0  0
 20 19  1  0  0  0  0
 21 12  1  6  0  0  0
 21 20  1  0  0  0  0
 22 21  1  0  0  0  0
 22 23  1  0  0  0  0
 23 18  1  0  0  0  0
 24 25  1  0  0  0  0
 24  5  1  0  0  0  0
 26 24  2  0  0  0  0
M  END
>  <minimizedAffinity>
-2.89464402

$$$$
