
 OpenBabel09092210413D

 26 29  0  0  1  0  0  0  0  0999 V2000
    2.2410    1.9620    1.5610 C   0  0  0  0  0  0  0  0  0  0  0  0
    3.2630    1.0220    1.9310 C   0  0  0  0  0  3  0  0  0  0  0  0
    2.8880   -0.2960    1.7640 C   0  0  0  0  0  0  0  0  0  0  0  0
    1.3020   -0.3910    1.1350 S   0  0  0  0  0  0  0  0  0  0  0  0
    1.1510    1.3190    1.0000 C   0  0  0  0  0  0  0  0  0  0  0  0
    3.6420   -1.5140    2.0890 C   0  0  0  0  0  0  0  0  0  0  0  0
    3.6510   -2.6230    1.2290 C   0  0  0  0  0  3  0  0  0  0  0  0
    4.3850   -3.7690    1.5480 C   0  0  0  0  0  3  0  0  0  0  0  0
    5.1220   -3.8200    2.7300 C   0  0  0  0  0  3  0  0  0  0  0  0
    5.1260   -2.7260    3.5920 C   0  0  0  0  0  3  0  0  0  0  0  0
    4.3930   -1.5800    3.2720 C   0  0  0  0  0  3  0  0  0  0  0  0
    2.8280    4.4370    0.8880 N   0  0  0  0  0  0  0  0  0  0  0  0
    2.8250    5.6350    1.5490 N   0  0  0  0  0  0  0  0  0  0  0  0
    2.4540    5.4240    2.8010 N   0  0  0  0  0  0  0  0  0  0  0  0
    2.2140    4.0930    2.9400 C   0  0  0  0  0  3  0  0  0  0  0  0
    2.4490    3.4320    1.7530 C   0  0  0  0  0  0  0  0  0  0  0  0
    3.0080    5.3620   -4.8560 C   0  0  0  0  0  1  0  0  0  0  0  0
    3.2510    5.4650   -3.3520 C   0  0  1  0  0  3  0  0  0  0  0  0
    1.9370    5.7450   -2.6090 C   0  0  0  0  0  2  0  0  0  0  0  0
    2.1410    5.8060   -1.0940 C   0  0  0  0  0  2  0  0  0  0  0  0
    2.8220    4.5310   -0.5690 C   0  0  1  0  0  3  0  0  0  0  0  0
    4.1390    4.2580   -1.3090 C   0  0  0  0  0  2  0  0  0  0  0  0
    3.9190    4.1890   -2.8220 C   0  0  0  0  0  2  0  0  0  0  0  0
   -0.0150    1.9400    0.3060 C   0  0  0  0  0  0  0  0  0  0  0  0
    0.0970    2.1660   -0.9380 O   0  0  0  0  0  0  0  0  0  0  0  0
   -1.0400    2.1940    1.0080 O   0  0  0  0  0  1  0  0  0  0  0  0
  1 16  1  0  0  0  0
  1  2  1  0  0  0  0
  3  2  2  0  0  0  0
  3  6  1  0  0  0  0
  4  3  1  0  0  0  0
  5  4  1  0  0  0  0
  5  1  2  0  0  0  0
  6 11  1  0  0  0  0
  7  8  1  0  0  0  0
  7  6  2  0  0  0  0
  8  9  2  0  0  0  0
  9 10  1  0  0  0  0
 11 10  2  0  0  0  0
 12 13  1  0  0  0  0
 12 16  1  0  0  0  0
 13 14  2  0  0  0  0
 14 15  1  0  0  0  0
 16 15  2  0  0  0  0
 18 17  1  6  0  0  0
 18 23  1  0  0  0  0
 18 19  1  0  0  0  0
 19 20  1  0  0  0  0
 21 20  1  1  0  0  0
 21 22  1  0  0  0  0
 21 12  1  0  0  0  0
 23 22  1  0  0  0  0
 24  5  1  0  0  0  0
 24 26  1  0  0  0  0
 25 24  2  0  0  0  0
M  END
>  <minimizedAffinity>
-2.8973341

$$$$
