
 OpenBabel09092210413D

 26 29  0  0  1  0  0  0  0  0999 V2000
    4.3780   -1.7570    2.5400 C   0  0  0  0  0  0  0  0  0  0  0  0
    4.1440   -2.6700    1.4560 C   0  0  0  0  0  3  0  0  0  0  0  0
    5.2920   -3.0360    0.7830 C   0  0  0  0  0  0  0  0  0  0  0  0
    6.6590   -2.2900    1.4850 S   0  0  0  0  0  0  0  0  0  0  0  0
    5.7330   -1.5540    2.7370 C   0  0  0  0  0  0  0  0  0  0  0  0
    5.4300   -3.8970   -0.4000 C   0  0  0  0  0  0  0  0  0  0  0  0
    4.7750   -3.5990   -1.6040 C   0  0  0  0  0  3  0  0  0  0  0  0
    4.9270   -4.4230   -2.7230 C   0  0  0  0  0  3  0  0  0  0  0  0
    5.7390   -5.5530   -2.6540 C   0  0  0  0  0  3  0  0  0  0  0  0
    6.3990   -5.8610   -1.4650 C   0  0  0  0  0  3  0  0  0  0  0  0
    6.2470   -5.0360   -0.3470 C   0  0  0  0  0  3  0  0  0  0  0  0
    2.8530    0.0990    3.6130 N   0  0  0  0  0  0  0  0  0  0  0  0
    1.6930    0.0840    4.3380 N   0  0  0  0  0  0  0  0  0  0  0  0
    1.3260   -1.1740    4.5170 N   0  0  0  0  0  0  0  0  0  0  0  0
    2.2460   -1.9640    3.9020 C   0  0  0  0  0  3  0  0  0  0  0  0
    3.2350   -1.1940    3.3260 C   0  0  0  0  0  0  0  0  0  0  0  0
    3.5790    5.3210    1.1460 C   0  0  0  0  0  1  0  0  0  0  0  0
    2.9980    4.1390    1.9190 C   0  0  1  0  0  3  0  0  0  0  0  0
    2.8450    2.9160    1.0050 C   0  0  0  0  0  2  0  0  0  0  0  0
    2.3100    1.7000    1.7640 C   0  0  0  0  0  2  0  0  0  0  0  0
    3.1800    1.3790    2.9920 C   0  0  1  0  0  3  0  0  0  0  0  0
    3.3240    2.6030    3.9080 C   0  0  0  0  0  2  0  0  0  0  0  0
    3.8700    3.8080    3.1380 C   0  0  0  0  0  2  0  0  0  0  0  0
    6.3930   -0.8500    3.8750 C   0  0  0  0  0  0  0  0  0  0  0  0
    6.6440   -1.5310    4.9170 O   0  0  0  0  0  1  0  0  0  0  0  0
    6.6620    0.3790    3.7200 O   0  0  0  0  0  0  0  0  0  0  0  0
  1  5  2  0  0  0  0
  1 16  1  0  0  0  0
  2  1  1  0  0  0  0
  3  2  2  0  0  0  0
  3  4  1  0  0  0  0
  4  5  1  0  0  0  0
  5 24  1  0  0  0  0
  6 11  1  0  0  0  0
  6  3  1  0  0  0  0
  7  6  2  0  0  0  0
  8  9  2  0  0  0  0
  8  7  1  0  0  0  0
  9 10  1  0  0  0  0
 10 11  2  0  0  0  0
 12 13  1  0  0  0  0
 13 14  2  0  0  0  0
 15 14  1  0  0  0  0
 16 12  1  0  0  0  0
 16 15  2  0  0  0  0
 18 17  1  6  0  0  0
 18 23  1  0  0  0  0
 19 20  1  0  0  0  0
 19 18  1  0  0  0  0
 21 20  1  6  0  0  0
 21 12  1  0  0  0  0
 21 22  1  0  0  0  0
 23 22  1  0  0  0  0
 24 25  1  0  0  0  0
 26 24  2  0  0  0  0
M  END
>  <minimizedAffinity>
-3.16320252

$$$$
