
 OpenBabel09092210413D

 26 29  0  0  1  0  0  0  0  0999 V2000
    1.8740    1.5000    1.7380 C   0  0  0  0  0  0  0  0  0  0  0  0
    3.1630    0.9860    2.1090 C   0  0  0  0  0  3  0  0  0  0  0  0
    3.3230   -0.3560    1.8320 C   0  0  0  0  0  0  0  0  0  0  0  0
    1.9150   -0.9880    1.1000 S   0  0  0  0  0  0  0  0  0  0  0  0
    1.1300    0.5440    1.0680 C   0  0  0  0  0  0  0  0  0  0  0  0
    4.4730   -1.2240    2.1230 C   0  0  0  0  0  0  0  0  0  0  0  0
    4.7690   -1.6370    3.4310 C   0  0  0  0  0  3  0  0  0  0  0  0
    5.8590   -2.4730    3.6880 C   0  0  0  0  0  3  0  0  0  0  0  0
    6.6670   -2.9080    2.6390 C   0  0  0  0  0  3  0  0  0  0  0  0
    6.3850   -2.5090    1.3340 C   0  0  0  0  0  3  0  0  0  0  0  0
    5.2940   -1.6750    1.0780 C   0  0  0  0  0  3  0  0  0  0  0  0
    1.7540    4.1040    1.3830 N   0  0  0  0  0  0  0  0  0  0  0  0
    1.1450    5.1340    2.0470 N   0  0  0  0  0  0  0  0  0  0  0  0
    0.5120    4.6400    3.0980 N   0  0  0  0  0  0  0  0  0  0  0  0
    0.7100    3.2950    3.1040 C   0  0  0  0  0  3  0  0  0  0  0  0
    1.5000    2.9180    2.0390 C   0  0  0  0  0  0  0  0  0  0  0  0
    3.5330    4.7280   -4.1240 C   0  0  0  0  0  1  0  0  0  0  0  0
    3.0810    4.1280   -2.7940 C   0  0  1  0  0  3  0  0  0  0  0  0
    4.0470    4.5170   -1.6680 C   0  0  0  0  0  2  0  0  0  0  0  0
    3.5930    3.9710   -0.3130 C   0  0  0  0  0  2  0  0  0  0  0  0
    2.1510    4.4000    0.0100 C   0  0  1  0  0  3  0  0  0  0  0  0
    1.1860    4.0020   -1.1160 C   0  0  0  0  0  2  0  0  0  0  0  0
    1.6470    4.5650   -2.4640 C   0  0  0  0  0  2  0  0  0  0  0  0
   -0.1610    0.7360    0.3450 C   0  0  0  0  0  0  0  0  0  0  0  0
   -0.1270    0.7290   -0.9250 O   0  0  0  0  0  0  0  0  0  0  0  0
   -1.2050    0.8890    1.0490 O   0  0  0  0  0  1  0  0  0  0  0  0
  1 16  1  0  0  0  0
  1  2  1  0  0  0  0
  3  2  2  0  0  0  0
  3  6  1  0  0  0  0
  4  3  1  0  0  0  0
  5  4  1  0  0  0  0
  5  1  2  0  0  0  0
  6  7  1  0  0  0  0
  7  8  2  0  0  0  0
  9  8  1  0  0  0  0
 10  9  2  0  0  0  0
 11 10  1  0  0  0  0
 11  6  2  0  0  0  0
 12 16  1  0  0  0  0
 12 13  1  0  0  0  0
 13 14  2  0  0  0  0
 14 15  1  0  0  0  0
 16 15  2  0  0  0  0
 18 17  1  6  0  0  0
 18 23  1  0  0  0  0
 18 19  1  0  0  0  0
 19 20  1  0  0  0  0
 21 20  1  6  0  0  0
 21 22  1  0  0  0  0
 21 12  1  0  0  0  0
 23 22  1  0  0  0  0
 24 26  1  0  0  0  0
 24  5  1  0  0  0  0
 25 24  2  0  0  0  0
M  END
>  <minimizedAffinity>
-3.22812986

$$$$
