
 OpenBabel09092210413D

 26 29  0  0  1  0  0  0  0  0999 V2000
    5.3310   -2.8800    1.5780 C   0  0  0  0  0  0  0  0  0  0  0  0
    5.2640   -2.7780    0.1470 C   0  0  0  0  0  3  0  0  0  0  0  0
    5.2070   -4.0000   -0.4930 C   0  0  0  0  0  0  0  0  0  0  0  0
    5.2090   -5.2720    0.6480 S   0  0  0  0  0  0  0  0  0  0  0  0
    5.1950   -4.1940    1.9910 C   0  0  0  0  0  0  0  0  0  0  0  0
    5.1880   -4.2830   -1.9340 C   0  0  0  0  0  0  0  0  0  0  0  0
    4.4940   -3.4620   -2.8350 C   0  0  0  0  0  3  0  0  0  0  0  0
    4.4970   -3.7390   -4.2050 C   0  0  0  0  0  3  0  0  0  0  0  0
    5.1990   -4.8400   -4.6930 C   0  0  0  0  0  3  0  0  0  0  0  0
    5.8970   -5.6630   -3.8120 C   0  0  0  0  0  3  0  0  0  0  0  0
    5.8930   -5.3850   -2.4420 C   0  0  0  0  0  3  0  0  0  0  0  0
    4.5790   -0.6950    2.8340 N   0  0  0  0  0  0  0  0  0  0  0  0
    5.2080    0.2050    3.6510 N   0  0  0  0  0  0  0  0  0  0  0  0
    6.4750   -0.1550    3.7760 N   0  0  0  0  0  0  0  0  0  0  0  0
    6.6550   -1.2870    3.0450 C   0  0  0  0  0  3  0  0  0  0  0  0
    5.4790   -1.6560    2.4260 C   0  0  0  0  0  0  0  0  0  0  0  0
   -1.2300   -1.0360    2.6740 C   0  0  0  0  0  1  0  0  0  0  0  0
    0.2570   -1.3390    2.4940 C   0  0  1  0  0  3  0  0  0  0  0  0
    0.9430   -0.2230    1.6950 C   0  0  0  0  0  2  0  0  0  0  0  0
    2.4450   -0.4740    1.5410 C   0  0  0  0  0  2  0  0  0  0  0  0
    3.1210   -0.6840    2.9060 C   0  0  1  0  0  3  0  0  0  0  0  0
    2.4350   -1.8060    3.7000 C   0  0  0  0  0  2  0  0  0  0  0  0
    0.9370   -1.5370    3.8560 C   0  0  0  0  0  2  0  0  0  0  0  0
    5.0040   -4.6970    3.3830 C   0  0  0  0  0  0  0  0  0  0  0  0
    3.8380   -5.0750    3.7140 O   0  0  0  0  0  0  0  0  0  0  0  0
    6.0230   -4.7160    4.1380 O   0  0  0  0  0  1  0  0  0  0  0  0
  1  5  2  0  0  0  0
  1 16  1  0  0  0  0
  2  1  1  0  0  0  0
  3  2  2  0  0  0  0
  3  4  1  0  0  0  0
  4  5  1  0  0  0  0
  5 24  1  0  0  0  0
  6  3  1  0  0  0  0
  7  6  2  0  0  0  0
  8  7  1  0  0  0  0
  9  8  2  0  0  0  0
  9 10  1  0  0  0  0
 10 11  2  0  0  0  0
 11  6  1  0  0  0  0
 12 13  1  0  0  0  0
 13 14  2  0  0  0  0
 15 14  1  0  0  0  0
 16 12  1  0  0  0  0
 16 15  2  0  0  0  0
 18 17  1  1  0  0  0
 18 23  1  0  0  0  0
 19 18  1  0  0  0  0
 20 19  1  0  0  0  0
 21 12  1  6  0  0  0
 21 20  1  0  0  0  0
 21 22  1  0  0  0  0
 22 23  1  0  0  0  0
 24 25  2  0  0  0  0
 24 26  1  0  0  0  0
M  END
>  <minimizedAffinity>
-3.10820079

$$$$
