
 OpenBabel09092210413D

 26 29  0  0  1  0  0  0  0  0999 V2000
    2.4100   -3.2220    0.8860 C   0  0  0  0  0  0  0  0  0  0  0  0
    2.2720   -4.5210    1.4840 C   0  0  0  0  0  3  0  0  0  0  0  0
    0.9860   -5.0180    1.4360 C   0  0  0  0  0  0  0  0  0  0  0  0
   -0.0520   -3.9170    0.6420 S   0  0  0  0  0  0  0  0  0  0  0  0
    1.2290   -2.8230    0.2830 C   0  0  0  0  0  0  0  0  0  0  0  0
    0.4650   -6.2740    1.9930 C   0  0  0  0  0  0  0  0  0  0  0  0
   -0.8490   -6.6980    1.7450 C   0  0  0  0  0  3  0  0  0  0  0  0
   -1.3240   -7.9020    2.2730 C   0  0  0  0  0  3  0  0  0  0  0  0
   -0.4900   -8.7000    3.0530 C   0  0  0  0  0  3  0  0  0  0  0  0
    0.8180   -8.2940    3.3070 C   0  0  0  0  0  3  0  0  0  0  0  0
    1.2930   -7.0900    2.7780 C   0  0  0  0  0  3  0  0  0  0  0  0
    4.9310   -2.7420    0.3070 N   0  0  0  0  0  0  0  0  0  0  0  0
    5.8130   -1.7460    0.6250 N   0  0  0  0  0  0  0  0  0  0  0  0
    5.2020   -0.8790    1.4160 N   0  0  0  0  0  0  0  0  0  0  0  0
    3.9280   -1.3160    1.5990 C   0  0  0  0  0  3  0  0  0  0  0  0
    3.7200   -2.4990    0.9200 C   0  0  0  0  0  0  0  0  0  0  0  0
    6.0090   -6.3640   -4.1200 C   0  0  0  0  0  1  0  0  0  0  0  0
    5.3470   -5.6580   -2.9380 C   0  0  1  0  0  3  0  0  0  0  0  0
    6.2300   -5.7540   -1.6870 C   0  0  0  0  0  2  0  0  0  0  0  0
    5.6150   -5.0130   -0.4970 C   0  0  0  0  0  2  0  0  0  0  0  0
    5.2990   -3.5500   -0.8520 C   0  0  1  0  0  3  0  0  0  0  0  0
    4.4100   -3.4590   -2.1000 C   0  0  0  0  0  2  0  0  0  0  0  0
    5.0420   -4.1950   -3.2840 C   0  0  0  0  0  2  0  0  0  0  0  0
    1.0140   -1.6500   -0.6130 C   0  0  0  0  0  0  0  0  0  0  0  0
    1.1200   -1.8410   -1.8640 O   0  0  0  0  0  0  0  0  0  0  0  0
    0.7360   -0.5420   -0.0620 O   0  0  0  0  0  1  0  0  0  0  0  0
  1 16  1  0  0  0  0
  1  2  1  0  0  0  0
  3  2  2  0  0  0  0
  3  6  1  0  0  0  0
  4  3  1  0  0  0  0
  5  4  1  0  0  0  0
  5  1  2  0  0  0  0
  6 11  1  0  0  0  0
  7  6  2  0  0  0  0
  7  8  1  0  0  0  0
  8  9  2  0  0  0  0
  9 10  1  0  0  0  0
 11 10  2  0  0  0  0
 12 13  1  0  0  0  0
 12 16  1  0  0  0  0
 13 14  2  0  0  0  0
 14 15  1  0  0  0  0
 16 15  2  0  0  0  0
 18 17  1  6  0  0  0
 18 19  1  0  0  0  0
 19 20  1  0  0  0  0
 21 22  1  6  0  0  0
 21 20  1  0  0  0  0
 21 12  1  0  0  0  0
 23 18  1  0  0  0  0
 23 22  1  0  0  0  0
 24 26  1  0  0  0  0
 24  5  1  0  0  0  0
 25 24  2  0  0  0  0
M  END
>  <minimizedAffinity>
-2.92919612

$$$$
