
 OpenBabel09092210413D

 26 29  0  0  1  0  0  0  0  0999 V2000
    5.3730   -2.9080    1.5490 C   0  0  0  0  0  0  0  0  0  0  0  0
    5.2810   -2.8060    0.1190 C   0  0  0  0  0  3  0  0  0  0  0  0
    5.2470   -4.0280   -0.5210 C   0  0  0  0  0  0  0  0  0  0  0  0
    5.3030   -5.3010    0.6170 S   0  0  0  0  0  0  0  0  0  0  0  0
    5.2790   -4.2260    1.9620 C   0  0  0  0  0  0  0  0  0  0  0  0
    5.2150   -4.3090   -1.9630 C   0  0  0  0  0  0  0  0  0  0  0  0
    4.5100   -3.4880   -2.8560 C   0  0  0  0  0  3  0  0  0  0  0  0
    4.5000   -3.7630   -4.2260 C   0  0  0  0  0  3  0  0  0  0  0  0
    5.1990   -4.8620   -4.7230 C   0  0  0  0  0  3  0  0  0  0  0  0
    5.9070   -5.6850   -3.8490 C   0  0  0  0  0  3  0  0  0  0  0  0
    5.9170   -5.4080   -2.4790 C   0  0  0  0  0  3  0  0  0  0  0  0
    4.5830   -0.7340    2.8030 N   0  0  0  0  0  0  0  0  0  0  0  0
    5.1960    0.1760    3.6210 N   0  0  0  0  0  0  0  0  0  0  0  0
    6.4680   -0.1650    3.7490 N   0  0  0  0  0  0  0  0  0  0  0  0
    6.6670   -1.2940    3.0200 C   0  0  0  0  0  3  0  0  0  0  0  0
    5.4990   -1.6810    2.3970 C   0  0  0  0  0  0  0  0  0  0  0  0
   -1.2190   -1.1590    2.6210 C   0  0  0  0  0  1  0  0  0  0  0  0
    0.2720   -1.4370    2.4420 C   0  0  1  0  0  3  0  0  0  0  0  0
    0.9430   -0.3000    1.6600 C   0  0  0  0  0  2  0  0  0  0  0  0
    2.4490   -0.5260    1.5070 C   0  0  0  0  0  2  0  0  0  0  0  0
    3.1250   -0.7460    2.8710 C   0  0  1  0  0  3  0  0  0  0  0  0
    2.4540   -1.8890    3.6470 C   0  0  0  0  0  2  0  0  0  0  0  0
    0.9510   -1.6440    3.8030 C   0  0  0  0  0  2  0  0  0  0  0  0
    5.1230   -4.7360    3.3550 C   0  0  0  0  0  0  0  0  0  0  0  0
    3.9650   -5.1120    3.7150 O   0  0  0  0  0  0  0  0  0  0  0  0
    6.1620   -4.7620    4.0830 O   0  0  0  0  0  1  0  0  0  0  0  0
  1  5  2  0  0  0  0
  1 16  1  0  0  0  0
  2  1  1  0  0  0  0
  3  2  2  0  0  0  0
  3  4  1  0  0  0  0
  4  5  1  0  0  0  0
  5 24  1  0  0  0  0
  6  3  1  0  0  0  0
  7  6  2  0  0  0  0
  8  7  1  0  0  0  0
  9  8  2  0  0  0  0
  9 10  1  0  0  0  0
 10 11  2  0  0  0  0
 11  6  1  0  0  0  0
 12 13  1  0  0  0  0
 13 14  2  0  0  0  0
 15 14  1  0  0  0  0
 16 12  1  0  0  0  0
 16 15  2  0  0  0  0
 18 17  1  1  0  0  0
 18 23  1  0  0  0  0
 19 18  1  0  0  0  0
 20 19  1  0  0  0  0
 21 12  1  6  0  0  0
 21 20  1  0  0  0  0
 21 22  1  0  0  0  0
 22 23  1  0  0  0  0
 24 25  2  0  0  0  0
 24 26  1  0  0  0  0
M  END
>  <minimizedAffinity>
-3.22151566

$$$$
