
 OpenBabel09082221273D

 26 29  0  0  1  0  0  0  0  0999 V2000
    4.2960   -1.6660    2.3700 C   0  0  0  0  0  0  0  0  0  0  0  0
    4.0770   -2.5650    1.2710 C   0  0  0  0  0  3  0  0  0  0  0  0
    5.2390   -2.9520    0.6340 C   0  0  0  0  0  0  0  0  0  0  0  0
    6.5980   -2.2420    1.3870 S   0  0  0  0  0  0  0  0  0  0  0  0
    5.6480   -1.4950    2.6130 C   0  0  0  0  0  0  0  0  0  0  0  0
    5.3970   -3.8070   -0.5510 C   0  0  0  0  0  0  0  0  0  0  0  0
    6.1850   -4.9670   -0.5200 C   0  0  0  0  0  3  0  0  0  0  0  0
    6.3130   -5.7740   -1.6540 C   0  0  0  0  0  3  0  0  0  0  0  0
    5.6520   -5.4340   -2.8320 C   0  0  0  0  0  3  0  0  0  0  0  0
    4.8630   -4.2870   -2.8780 C   0  0  0  0  0  3  0  0  0  0  0  0
    4.7340   -3.4800   -1.7440 C   0  0  0  0  0  3  0  0  0  0  0  0
    2.7710    0.2160    3.3970 N   0  0  0  0  0  0  0  0  0  0  0  0
    1.5910    0.2200    4.0900 N   0  0  0  0  0  0  0  0  0  0  0  0
    1.1990   -1.0320    4.2600 N   0  0  0  0  0  0  0  0  0  0  0  0
    2.1240   -1.8370    3.6730 C   0  0  0  0  0  3  0  0  0  0  0  0
    3.1410   -1.0840    3.1230 C   0  0  0  0  0  0  0  0  0  0  0  0
    3.6470    5.4170    0.9370 C   0  0  0  0  0  1  0  0  0  0  0  0
    3.0240    4.2460    1.6930 C   0  0  1  0  0  3  0  0  0  0  0  0
    2.8920    3.0200    0.7790 C   0  0  0  0  0  2  0  0  0  0  0  0
    2.3150    1.8140    1.5230 C   0  0  0  0  0  2  0  0  0  0  0  0
    3.1350    1.4890    2.7830 C   0  0  1  0  0  3  0  0  0  0  0  0
    3.2590    2.7150    3.6990 C   0  0  0  0  0  2  0  0  0  0  0  0
    3.8470    3.9110    2.9450 C   0  0  0  0  0  2  0  0  0  0  0  0
    6.2860   -0.8160    3.7780 C   0  0  0  0  0  0  0  0  0  0  0  0
    6.6630   -1.5460    4.7470 O   0  0  0  0  0  1  0  0  0  0  0  0
    6.4110    0.4450    3.7190 O   0  0  0  0  0  0  0  0  0  0  0  0
  1  5  2  0  0  0  0
  1 16  1  0  0  0  0
  2  1  1  0  0  0  0
  3  2  2  0  0  0  0
  3  4  1  0  0  0  0
  4  5  1  0  0  0  0
  5 24  1  0  0  0  0
  6  7  1  0  0  0  0
  6  3  1  0  0  0  0
  8  7  2  0  0  0  0
  9  8  1  0  0  0  0
 10  9  2  0  0  0  0
 10 11  1  0  0  0  0
 11  6  2  0  0  0  0
 12 13  1  0  0  0  0
 13 14  2  0  0  0  0
 15 14  1  0  0  0  0
 16 12  1  0  0  0  0
 16 15  2  0  0  0  0
 18 17  1  6  0  0  0
 18 23  1  0  0  0  0
 19 20  1  0  0  0  0
 19 18  1  0  0  0  0
 21 20  1  6  0  0  0
 21 12  1  0  0  0  0
 21 22  1  0  0  0  0
 23 22  1  0  0  0  0
 24 25  1  0  0  0  0
 26 24  2  0  0  0  0
M  END
>  <minimizedAffinity>
-3.32948565

$$$$

 OpenBabel09082221273D

 26 29  0  0  1  0  0  0  0  0999 V2000
    1.9090    1.5380    1.7590 C   0  0  0  0  0  0  0  0  0  0  0  0
    3.1930    1.0150    2.1330 C   0  0  0  0  0  3  0  0  0  0  0  0
    3.3450   -0.3280    1.8560 C   0  0  0  0  0  0  0  0  0  0  0  0
    1.9350   -0.9490    1.1180 S   0  0  0  0  0  0  0  0  0  0  0  0
    1.1610    0.5880    1.0850 C   0  0  0  0  0  0  0  0  0  0  0  0
    4.4880   -1.2040    2.1500 C   0  0  0  0  0  0  0  0  0  0  0  0
    4.7970   -1.5920    3.4630 C   0  0  0  0  0  3  0  0  0  0  0  0
    5.8810   -2.4360    3.7230 C   0  0  0  0  0  3  0  0  0  0  0  0
    6.6670   -2.9060    2.6740 C   0  0  0  0  0  3  0  0  0  0  0  0
    6.3720   -2.5330    1.3640 C   0  0  0  0  0  3  0  0  0  0  0  0
    5.2870   -1.6890    1.1040 C   0  0  0  0  0  3  0  0  0  0  0  0
    1.7980    4.1420    1.3980 N   0  0  0  0  0  0  0  0  0  0  0  0
    1.1990    5.1760    2.0650 N   0  0  0  0  0  0  0  0  0  0  0  0
    0.5730    4.6880    3.1230 N   0  0  0  0  0  0  0  0  0  0  0  0
    0.7660    3.3420    3.1310 C   0  0  0  0  0  3  0  0  0  0  0  0
    1.5450    2.9580    2.0590 C   0  0  0  0  0  0  0  0  0  0  0  0
    3.5140    4.7400   -4.1310 C   0  0  0  0  0  1  0  0  0  0  0  0
    3.0600    4.1470   -2.7990 C   0  0  1  0  0  3  0  0  0  0  0  0
    4.0580    4.4920   -1.6850 C   0  0  0  0  0  2  0  0  0  0  0  0
    3.6040    3.9520   -0.3270 C   0  0  0  0  0  2  0  0  0  0  0  0
    2.1850    4.4330    0.0210 C   0  0  1  0  0  3  0  0  0  0  0  0
    1.1890    4.0810   -1.0920 C   0  0  0  0  0  2  0  0  0  0  0  0
    1.6490    4.6350   -2.4420 C   0  0  0  0  0  2  0  0  0  0  0  0
   -0.1260    0.7900    0.3570 C   0  0  0  0  0  0  0  0  0  0  0  0
   -0.0900    0.7660   -0.9130 O   0  0  0  0  0  0  0  0  0  0  0  0
   -1.1680    0.9680    1.0570 O   0  0  0  0  0  1  0  0  0  0  0  0
  1 16  1  0  0  0  0
  1  2  1  0  0  0  0
  3  2  2  0  0  0  0
  3  6  1  0  0  0  0
  4  3  1  0  0  0  0
  5  4  1  0  0  0  0
  5  1  2  0  0  0  0
  6  7  1  0  0  0  0
  7  8  2  0  0  0  0
  9  8  1  0  0  0  0
 10  9  2  0  0  0  0
 11 10  1  0  0  0  0
 11  6  2  0  0  0  0
 12 16  1  0  0  0  0
 12 13  1  0  0  0  0
 13 14  2  0  0  0  0
 14 15  1  0  0  0  0
 16 15  2  0  0  0  0
 18 17  1  6  0  0  0
 18 23  1  0  0  0  0
 18 19  1  0  0  0  0
 19 20  1  0  0  0  0
 20 21  1  0  0  0  0
 21 22  1  6  0  0  0
 21 12  1  0  0  0  0
 23 22  1  0  0  0  0
 24 26  1  0  0  0  0
 24  5  1  0  0  0  0
 25 24  2  0  0  0  0
M  END
>  <minimizedAffinity>
-3.30651855

$$$$

 OpenBabel09082221273D

 26 29  0  0  1  0  0  0  0  0999 V2000
    5.3730   -2.9080    1.5490 C   0  0  0  0  0  0  0  0  0  0  0  0
    5.2810   -2.8060    0.1190 C   0  0  0  0  0  3  0  0  0  0  0  0
    5.2470   -4.0280   -0.5210 C   0  0  0  0  0  0  0  0  0  0  0  0
    5.3030   -5.3010    0.6170 S   0  0  0  0  0  0  0  0  0  0  0  0
    5.2790   -4.2260    1.9620 C   0  0  0  0  0  0  0  0  0  0  0  0
    5.2150   -4.3090   -1.9630 C   0  0  0  0  0  0  0  0  0  0  0  0
    4.5100   -3.4880   -2.8560 C   0  0  0  0  0  3  0  0  0  0  0  0
    4.5000   -3.7630   -4.2260 C   0  0  0  0  0  3  0  0  0  0  0  0
    5.1990   -4.8620   -4.7230 C   0  0  0  0  0  3  0  0  0  0  0  0
    5.9070   -5.6850   -3.8490 C   0  0  0  0  0  3  0  0  0  0  0  0
    5.9170   -5.4080   -2.4790 C   0  0  0  0  0  3  0  0  0  0  0  0
    4.5830   -0.7340    2.8030 N   0  0  0  0  0  0  0  0  0  0  0  0
    5.1960    0.1760    3.6210 N   0  0  0  0  0  0  0  0  0  0  0  0
    6.4680   -0.1650    3.7490 N   0  0  0  0  0  0  0  0  0  0  0  0
    6.6670   -1.2940    3.0200 C   0  0  0  0  0  3  0  0  0  0  0  0
    5.4990   -1.6810    2.3970 C   0  0  0  0  0  0  0  0  0  0  0  0
   -1.2190   -1.1590    2.6210 C   0  0  0  0  0  1  0  0  0  0  0  0
    0.2720   -1.4370    2.4420 C   0  0  1  0  0  3  0  0  0  0  0  0
    0.9430   -0.3000    1.6600 C   0  0  0  0  0  2  0  0  0  0  0  0
    2.4490   -0.5260    1.5070 C   0  0  0  0  0  2  0  0  0  0  0  0
    3.1250   -0.7460    2.8710 C   0  0  1  0  0  3  0  0  0  0  0  0
    2.4540   -1.8890    3.6470 C   0  0  0  0  0  2  0  0  0  0  0  0
    0.9510   -1.6440    3.8030 C   0  0  0  0  0  2  0  0  0  0  0  0
    5.1230   -4.7360    3.3550 C   0  0  0  0  0  0  0  0  0  0  0  0
    3.9650   -5.1120    3.7150 O   0  0  0  0  0  0  0  0  0  0  0  0
    6.1620   -4.7620    4.0830 O   0  0  0  0  0  1  0  0  0  0  0  0
  1  5  2  0  0  0  0
  1 16  1  0  0  0  0
  2  1  1  0  0  0  0
  3  2  2  0  0  0  0
  3  4  1  0  0  0  0
  4  5  1  0  0  0  0
  5 24  1  0  0  0  0
  6  3  1  0  0  0  0
  7  6  2  0  0  0  0
  8  7  1  0  0  0  0
  9  8  2  0  0  0  0
  9 10  1  0  0  0  0
 10 11  2  0  0  0  0
 11  6  1  0  0  0  0
 12 21  1  0  0  0  0
 12 13  1  0  0  0  0
 13 14  2  0  0  0  0
 15 14  1  0  0  0  0
 16 12  1  0  0  0  0
 16 15  2  0  0  0  0
 18 17  1  1  0  0  0
 18 23  1  0  0  0  0
 19 18  1  0  0  0  0
 20 19  1  0  0  0  0
 21 20  1  6  0  0  0
 21 22  1  0  0  0  0
 22 23  1  0  0  0  0
 24 25  2  0  0  0  0
 24 26  1  0  0  0  0
M  END
>  <minimizedAffinity>
-3.22151566

$$$$

 OpenBabel09082221273D

 26 29  0  0  1  0  0  0  0  0999 V2000
    5.2890   -2.8710    1.5780 C   0  0  0  0  0  0  0  0  0  0  0  0
    5.2680   -2.7750    0.1450 C   0  0  0  0  0  3  0  0  0  0  0  0
    5.1910   -3.9980   -0.4900 C   0  0  0  0  0  0  0  0  0  0  0  0
    5.1200   -5.2630    0.6550 S   0  0  0  0  0  0  0  0  0  0  0  0
    5.1000   -4.1790    1.9930 C   0  0  0  0  0  0  0  0  0  0  0  0
    5.2060   -4.2880   -1.9310 C   0  0  0  0  0  0  0  0  0  0  0  0
    5.9080   -5.3850   -2.4510 C   0  0  0  0  0  3  0  0  0  0  0  0
    5.9020   -5.6530   -3.8230 C   0  0  0  0  0  3  0  0  0  0  0  0
    5.1910   -4.8280   -4.6930 C   0  0  0  0  0  3  0  0  0  0  0  0
    4.4860   -3.7360   -4.1910 C   0  0  0  0  0  3  0  0  0  0  0  0
    4.4920   -3.4690   -2.8190 C   0  0  0  0  0  3  0  0  0  0  0  0
    4.5610   -0.6740    2.8280 N   0  0  0  0  0  0  0  0  0  0  0  0
    5.1990    0.2190    3.6460 N   0  0  0  0  0  0  0  0  0  0  0  0
    6.4600   -0.1590    3.7770 N   0  0  0  0  0  0  0  0  0  0  0  0
    6.6280   -1.2940    3.0490 C   0  0  0  0  0  3  0  0  0  0  0  0
    5.4500   -1.6480    2.4250 C   0  0  0  0  0  0  0  0  0  0  0  0
   -1.2510   -0.9410    2.6460 C   0  0  0  0  0  1  0  0  0  0  0  0
    0.2320   -1.2650    2.4770 C   0  0  1  0  0  3  0  0  0  0  0  0
    0.9370   -0.1690    1.6670 C   0  0  0  0  0  2  0  0  0  0  0  0
    2.4360   -0.4410    1.5220 C   0  0  0  0  0  2  0  0  0  0  0  0
    3.1030   -0.6440    2.8930 C   0  0  1  0  0  3  0  0  0  0  0  0
    2.4000   -1.7460    3.6980 C   0  0  0  0  0  2  0  0  0  0  0  0
    0.9040   -1.4550    3.8440 C   0  0  0  0  0  2  0  0  0  0  0  0
    4.8530   -4.6680    3.3800 C   0  0  0  0  0  0  0  0  0  0  0  0
    5.8380   -4.6740    4.1820 O   0  0  0  0  0  1  0  0  0  0  0  0
    3.6740   -5.0400    3.6640 O   0  0  0  0  0  0  0  0  0  0  0  0
  1  5  2  0  0  0  0
  1 16  1  0  0  0  0
  2  1  1  0  0  0  0
  3  2  2  0  0  0  0
  3  4  1  0  0  0  0
  4  5  1  0  0  0  0
  5 24  1  0  0  0  0
  6  3  1  0  0  0  0
  7  6  1  0  0  0  0
  8  7  2  0  0  0  0
  9 10  2  0  0  0  0
  9  8  1  0  0  0  0
 10 11  1  0  0  0  0
 11  6  2  0  0  0  0
 12 21  1  0  0  0  0
 12 13  1  0  0  0  0
 13 14  2  0  0  0  0
 15 14  1  0  0  0  0
 16 12  1  0  0  0  0
 16 15  2  0  0  0  0
 18 17  1  1  0  0  0
 18 23  1  0  0  0  0
 19 18  1  0  0  0  0
 20 19  1  0  0  0  0
 21 20  1  6  0  0  0
 21 22  1  0  0  0  0
 22 23  1  0  0  0  0
 24 26  2  0  0  0  0
 24 25  1  0  0  0  0
M  END
>  <minimizedAffinity>
-3.19450212

$$$$

 OpenBabel09082221273D

 26 29  0  0  1  0  0  0  0  0999 V2000
    3.4660   -2.0190    1.2990 C   0  0  0  0  0  0  0  0  0  0  0  0
    3.4750   -2.8290    0.1130 C   0  0  0  0  0  3  0  0  0  0  0  0
    4.7420   -3.1910   -0.3000 C   0  0  0  0  0  0  0  0  0  0  0  0
    5.9190   -2.5650    0.7680 S   0  0  0  0  0  0  0  0  0  0  0  0
    4.7390   -1.8930    1.8270 C   0  0  0  0  0  0  0  0  0  0  0  0
    5.1370   -3.9580   -1.4900 C   0  0  0  0  0  0  0  0  0  0  0  0
    4.7750   -3.5470   -2.7810 C   0  0  0  0  0  3  0  0  0  0  0  0
    5.1700   -4.2830   -3.9030 C   0  0  0  0  0  3  0  0  0  0  0  0
    5.9350   -5.4360   -3.7470 C   0  0  0  0  0  3  0  0  0  0  0  0
    6.3060   -5.8550   -2.4700 C   0  0  0  0  0  3  0  0  0  0  0  0
    5.9110   -5.1190   -1.3500 C   0  0  0  0  0  3  0  0  0  0  0  0
    1.8280   -0.2230    2.3060 N   0  0  0  0  0  0  0  0  0  0  0  0
    0.5040   -0.2210    2.6500 N   0  0  0  0  0  0  0  0  0  0  0  0
    0.0060   -1.4240    2.4150 N   0  0  0  0  0  0  0  0  0  0  0  0
    1.0100   -2.1940    1.9160 C   0  0  0  0  0  3  0  0  0  0  0  0
    2.1830   -1.4720    1.8410 C   0  0  0  0  0  0  0  0  0  0  0  0
    3.6670    5.2620    1.6710 C   0  0  0  0  0  1  0  0  0  0  0  0
    2.8440    4.0320    2.0490 C   0  0  1  0  0  3  0  0  0  0  0  0
    2.4290    3.2530    0.7940 C   0  0  0  0  0  2  0  0  0  0  0  0
    1.6440    1.9870    1.1420 C   0  0  0  0  0  2  0  0  0  0  0  0
    2.4240    1.0970    2.1240 C   0  0  1  0  0  3  0  0  0  0  0  0
    2.8320    1.8780    3.3820 C   0  0  0  0  0  2  0  0  0  0  0  0
    3.6250    3.1350    3.0190 C   0  0  0  0  0  2  0  0  0  0  0  0
    5.1260   -1.3140    3.1460 C   0  0  0  0  0  0  0  0  0  0  0  0
    5.7110   -0.1870    3.1420 O   0  0  0  0  0  0  0  0  0  0  0  0
    4.8380   -1.9870    4.1820 O   0  0  0  0  0  1  0  0  0  0  0  0
  1  5  2  0  0  0  0
  1 16  1  0  0  0  0
  2  1  1  0  0  0  0
  3  2  2  0  0  0  0
  3  4  1  0  0  0  0
  4  5  1  0  0  0  0
  5 24  1  0  0  0  0
  6 11  1  0  0  0  0
  6  3  1  0  0  0  0
  7  6  2  0  0  0  0
  8  9  2  0  0  0  0
  8  7  1  0  0  0  0
  9 10  1  0  0  0  0
 10 11  2  0  0  0  0
 12 13  1  0  0  0  0
 14 13  2  0  0  0  0
 15 14  1  0  0  0  0
 16 15  2  0  0  0  0
 16 12  1  0  0  0  0
 18 17  1  6  0  0  0
 18 23  1  0  0  0  0
 19 20  1  0  0  0  0
 19 18  1  0  0  0  0
 21 20  1  1  0  0  0
 21 12  1  0  0  0  0
 21 22  1  0  0  0  0
 23 22  1  0  0  0  0
 24 26  1  0  0  0  0
 25 24  2  0  0  0  0
M  END
>  <minimizedAffinity>
-3.1802268

$$$$

 OpenBabel09082221273D

 26 29  0  0  1  0  0  0  0  0999 V2000
    5.2330   -4.1980   -0.5490 C   0  0  0  0  0  0  0  0  0  0  0  0
    5.8000   -5.4230   -0.0590 C   0  0  0  0  0  3  0  0  0  0  0  0
    5.5890   -6.5020   -0.8930 C   0  0  0  0  0  0  0  0  0  0  0  0
    4.7230   -6.0220   -2.2850 S   0  0  0  0  0  0  0  0  0  0  0  0
    4.7090   -4.3640   -1.8190 C   0  0  0  0  0  0  0  0  0  0  0  0
    5.9700   -7.9080   -0.6920 C   0  0  0  0  0  0  0  0  0  0  0  0
    6.2530   -8.4160    0.5840 C   0  0  0  0  0  3  0  0  0  0  0  0
    6.6010   -9.7590    0.7580 C   0  0  0  0  0  3  0  0  0  0  0  0
    6.6670  -10.6110   -0.3420 C   0  0  0  0  0  3  0  0  0  0  0  0
    6.3860  -10.1220   -1.6160 C   0  0  0  0  0  3  0  0  0  0  0  0
    6.0370   -8.7800   -1.7890 C   0  0  0  0  0  3  0  0  0  0  0  0
    4.3270   -2.0690    0.7040 N   0  0  0  0  0  0  0  0  0  0  0  0
    4.9020   -1.0920    1.4700 N   0  0  0  0  0  0  0  0  0  0  0  0
    6.2030   -1.3200    1.5350 N   0  0  0  0  0  0  0  0  0  0  0  0
    6.4610   -2.4460    0.8180 C   0  0  0  0  0  3  0  0  0  0  0  0
    5.2980   -2.9450    0.2670 C   0  0  0  0  0  0  0  0  0  0  0  0
   -1.3440   -2.6700    1.8710 C   0  0  0  0  0  1  0  0  0  0  0  0
    0.1560   -2.4130    2.0060 C   0  0  1  0  0  3  0  0  0  0  0  0
    0.9550   -3.6630    1.6150 C   0  0  0  0  0  2  0  0  0  0  0  0
    2.4640   -3.4220    1.6930 C   0  0  0  0  0  2  0  0  0  0  0  0
    2.8810   -2.2030    0.8520 C   0  0  1  0  0  3  0  0  0  0  0  0
    2.0830   -0.9530    1.2510 C   0  0  0  0  0  2  0  0  0  0  0  0
    0.5770   -1.2050    1.1580 C   0  0  0  0  0  2  0  0  0  0  0  0
    4.2220   -3.3040   -2.7500 C   0  0  0  0  0  0  0  0  0  0  0  0
    5.0790   -2.7550   -3.5110 O   0  0  0  0  0  0  0  0  0  0  0  0
    2.9850   -3.0280   -2.7200 O   0  0  0  0  0  1  0  0  0  0  0  0
  1  2  1  0  0  0  0
  1 16  1  0  0  0  0
  3  6  1  0  0  0  0
  3  2  2  0  0  0  0
  4  5  1  0  0  0  0
  4  3  1  0  0  0  0
  5  1  2  0  0  0  0
  6  7  1  0  0  0  0
  7  8  2  0  0  0  0
  9  8  1  0  0  0  0
 10  9  2  0  0  0  0
 11 10  1  0  0  0  0
 11  6  2  0  0  0  0
 12 13  1  0  0  0  0
 13 14  2  0  0  0  0
 15 14  1  0  0  0  0
 16 12  1  0  0  0  0
 16 15  2  0  0  0  0
 18 17  1  6  0  0  0
 19 20  1  0  0  0  0
 19 18  1  0  0  0  0
 21 12  1  1  0  0  0
 21 22  1  0  0  0  0
 21 20  1  0  0  0  0
 23 22  1  0  0  0  0
 23 18  1  0  0  0  0
 24 26  1  0  0  0  0
 24  5  1  0  0  0  0
 25 24  2  0  0  0  0
M  END
>  <minimizedAffinity>
-3.13904285

$$$$

 OpenBabel09082221273D

 26 29  0  0  1  0  0  0  0  0999 V2000
    2.3800   -3.3380    0.6940 C   0  0  0  0  0  0  0  0  0  0  0  0
    2.2350   -4.6650    1.2250 C   0  0  0  0  0  3  0  0  0  0  0  0
    0.9480   -5.1570    1.1370 C   0  0  0  0  0  0  0  0  0  0  0  0
   -0.0780   -4.0170    0.3850 S   0  0  0  0  0  0  0  0  0  0  0  0
    1.2080   -2.9080    0.0960 C   0  0  0  0  0  0  0  0  0  0  0  0
    0.4190   -6.4390    1.6240 C   0  0  0  0  0  0  0  0  0  0  0  0
    1.0370   -7.1370    2.6720 C   0  0  0  0  0  3  0  0  0  0  0  0
    0.5130   -8.3490    3.1320 C   0  0  0  0  0  3  0  0  0  0  0  0
   -0.6380   -8.8770    2.5510 C   0  0  0  0  0  3  0  0  0  0  0  0
   -1.2650   -8.1940    1.5100 C   0  0  0  0  0  3  0  0  0  0  0  0
   -0.7410   -6.9820    1.0520 C   0  0  0  0  0  3  0  0  0  0  0  0
    4.9120   -2.8380    0.1790 N   0  0  0  0  0  0  0  0  0  0  0  0
    5.7890   -1.8580    0.5530 N   0  0  0  0  0  0  0  0  0  0  0  0
    5.1650   -1.0240    1.3690 N   0  0  0  0  0  0  0  0  0  0  0  0
    3.8880   -1.4660    1.5110 C   0  0  0  0  0  3  0  0  0  0  0  0
    3.6900   -2.6200    0.7800 C   0  0  0  0  0  0  0  0  0  0  0  0
    6.0610   -6.2740   -4.3770 C   0  0  0  0  0  1  0  0  0  0  0  0
    5.3790   -5.6160   -3.1790 C   0  0  1  0  0  3  0  0  0  0  0  0
    6.2370   -5.7700   -1.9170 C   0  0  0  0  0  2  0  0  0  0  0  0
    5.6020   -5.0770   -0.7090 C   0  0  0  0  0  2  0  0  0  0  0  0
    5.2990   -3.5990   -1.0060 C   0  0  1  0  0  3  0  0  0  0  0  0
    4.4350   -3.4490   -2.2660 C   0  0  0  0  0  2  0  0  0  0  0  0
    5.0860   -4.1370   -3.4680 C   0  0  0  0  0  2  0  0  0  0  0  0
    1.0050   -1.6920   -0.7430 C   0  0  0  0  0  0  0  0  0  0  0  0
    1.0960   -1.8280   -2.0020 O   0  0  0  0  0  0  0  0  0  0  0  0
    0.7520   -0.6050   -0.1390 O   0  0  0  0  0  1  0  0  0  0  0  0
  1 16  1  0  0  0  0
  1  2  1  0  0  0  0
  3  2  2  0  0  0  0
  3  6  1  0  0  0  0
  4  3  1  0  0  0  0
  5  4  1  0  0  0  0
  5  1  2  0  0  0  0
  6  7  1  0  0  0  0
  7  8  2  0  0  0  0
  9  8  1  0  0  0  0
 10  9  2  0  0  0  0
 11 10  1  0  0  0  0
 11  6  2  0  0  0  0
 12 13  1  0  0  0  0
 12 16  1  0  0  0  0
 13 14  2  0  0  0  0
 14 15  1  0  0  0  0
 16 15  2  0  0  0  0
 18 17  1  6  0  0  0
 18 19  1  0  0  0  0
 19 20  1  0  0  0  0
 21 22  1  6  0  0  0
 21 20  1  0  0  0  0
 21 12  1  0  0  0  0
 23 18  1  0  0  0  0
 23 22  1  0  0  0  0
 24 26  1  0  0  0  0
 24  5  1  0  0  0  0
 25 24  2  0  0  0  0
M  END
>  <minimizedAffinity>
-3.06429482

$$$$

 OpenBabel09082221273D

 26 29  0  0  1  0  0  0  0  0999 V2000
    2.0230   -4.0340   -2.2940 C   0  0  0  0  0  0  0  0  0  0  0  0
    1.6220   -5.3680   -1.9450 C   0  0  0  0  0  3  0  0  0  0  0  0
    2.0110   -6.3210   -2.8640 C   0  0  0  0  0  0  0  0  0  0  0  0
    2.8860   -5.5980   -4.1410 S   0  0  0  0  0  0  0  0  0  0  0  0
    2.8250   -4.0340   -3.4230 C   0  0  0  0  0  0  0  0  0  0  0  0
    1.7300   -7.7630   -2.8670 C   0  0  0  0  0  0  0  0  0  0  0  0
    1.6800   -8.4990   -4.0610 C   0  0  0  0  0  3  0  0  0  0  0  0
    1.4230   -9.8730   -4.0440 C   0  0  0  0  0  3  0  0  0  0  0  0
    1.2170  -10.5300   -2.8330 C   0  0  0  0  0  3  0  0  0  0  0  0
    1.2670   -9.8140   -1.6380 C   0  0  0  0  0  3  0  0  0  0  0  0
    1.5240   -8.4410   -1.6560 C   0  0  0  0  0  3  0  0  0  0  0  0
    2.0170   -2.4390   -0.2010 N   0  0  0  0  0  0  0  0  0  0  0  0
    1.3720   -1.2740    0.1130 N   0  0  0  0  0  0  0  0  0  0  0  0
    0.5800   -0.9470   -0.8950 N   0  0  0  0  0  0  0  0  0  0  0  0
    0.7220   -1.8990   -1.8560 C   0  0  0  0  0  3  0  0  0  0  0  0
    1.6170   -2.8670   -1.4500 C   0  0  0  0  0  0  0  0  0  0  0  0
    6.6670   -4.1580    2.8490 C   0  0  0  0  0  1  0  0  0  0  0  0
    5.5190   -4.1030    1.8430 C   0  0  1  0  0  3  0  0  0  0  0  0
    4.1700   -4.0010    2.5670 C   0  0  0  0  0  2  0  0  0  0  0  0
    3.0020   -3.8950    1.5840 C   0  0  0  0  0  2  0  0  0  0  0  0
    3.2020   -2.7280    0.6010 C   0  0  1  0  0  3  0  0  0  0  0  0
    4.5500   -2.8370   -0.1260 C   0  0  0  0  0  2  0  0  0  0  0  0
    5.7090   -2.9320    0.8690 C   0  0  0  0  0  2  0  0  0  0  0  0
    3.6070   -2.8950   -3.9850 C   0  0  0  0  0  0  0  0  0  0  0  0
    4.8440   -2.8390   -3.7040 O   0  0  0  0  0  1  0  0  0  0  0  0
    2.9820   -2.0620   -4.7100 O   0  0  0  0  0  0  0  0  0  0  0  0
  1  2  1  0  0  0  0
  1 16  1  0  0  0  0
  3  2  2  0  0  0  0
  4  5  1  0  0  0  0
  4  3  1  0  0  0  0
  5  1  2  0  0  0  0
  6  3  1  0  0  0  0
  6 11  1  0  0  0  0
  7  8  1  0  0  0  0
  7  6  2  0  0  0  0
  8  9  2  0  0  0  0
  9 10  1  0  0  0  0
 11 10  2  0  0  0  0
 12 13  1  0  0  0  0
 14 13  2  0  0  0  0
 15 16  2  0  0  0  0
 15 14  1  0  0  0  0
 16 12  1  0  0  0  0
 18 19  1  0  0  0  0
 18 17  1  1  0  0  0
 20 19  1  0  0  0  0
 21 12  1  6  0  0  0
 21 20  1  0  0  0  0
 22 21  1  0  0  0  0
 22 23  1  0  0  0  0
 23 18  1  0  0  0  0
 24 25  1  0  0  0  0
 24  5  1  0  0  0  0
 26 24  2  0  0  0  0
M  END
>  <minimizedAffinity>
-3.02820182

$$$$

 OpenBabel09082221273D

 26 29  0  0  1  0  0  0  0  0999 V2000
    3.8540   -2.6960    0.5710 C   0  0  0  0  0  0  0  0  0  0  0  0
    4.9010   -3.2270   -0.2560 C   0  0  0  0  0  3  0  0  0  0  0  0
    4.4550   -3.7170   -1.4660 C   0  0  0  0  0  0  0  0  0  0  0  0
    2.7650   -3.5080   -1.6090 S   0  0  0  0  0  0  0  0  0  0  0  0
    2.6440   -2.6850   -0.1010 C   0  0  0  0  0  0  0  0  0  0  0  0
    5.2230   -4.3800   -2.5290 C   0  0  0  0  0  0  0  0  0  0  0  0
    5.9460   -5.5570   -2.2870 C   0  0  0  0  0  3  0  0  0  0  0  0
    6.6610   -6.1820   -3.3130 C   0  0  0  0  0  3  0  0  0  0  0  0
    6.6590   -5.6380   -4.5960 C   0  0  0  0  0  3  0  0  0  0  0  0
    5.9430   -4.4710   -4.8540 C   0  0  0  0  0  3  0  0  0  0  0  0
    5.2280   -3.8480   -3.8270 C   0  0  0  0  0  3  0  0  0  0  0  0
    4.3820   -2.8450    3.1450 N   0  0  0  0  0  0  0  0  0  0  0  0
    4.6530   -1.9260    4.1210 N   0  0  0  0  0  0  0  0  0  0  0  0
    4.6030   -0.7170    3.5860 N   0  0  0  0  0  0  0  0  0  0  0  0
    4.3060   -0.8620    2.2680 C   0  0  0  0  0  3  0  0  0  0  0  0
    4.1490   -2.1950    1.9510 C   0  0  0  0  0  0  0  0  0  0  0  0
    5.8140   -8.4450    3.8270 C   0  0  0  0  0  1  0  0  0  0  0  0
    5.4810   -7.0870    3.2120 C   0  0  1  0  0  3  0  0  0  0  0  0
    4.0690   -6.6420    3.6160 C   0  0  0  0  0  2  0  0  0  0  0  0
    3.7250   -5.2610    3.0550 C   0  0  0  0  0  2  0  0  0  0  0  0
    4.7800   -4.2150    3.4540 C   0  0  1  0  0  3  0  0  0  0  0  0
    6.1900   -4.6610    3.0420 C   0  0  0  0  0  2  0  0  0  0  0  0
    6.5250   -6.0380    3.6190 C   0  0  0  0  0  2  0  0  0  0  0  0
    1.3710   -2.0320    0.3230 C   0  0  0  0  0  0  0  0  0  0  0  0
    1.0560   -0.9400   -0.2450 O   0  0  0  0  0  0  0  0  0  0  0  0
    0.6890   -2.6150    1.2190 O   0  0  0  0  0  1  0  0  0  0  0  0
  1 16  1  0  0  0  0
  2  1  1  0  0  0  0
  3  2  2  0  0  0  0
  4  3  1  0  0  0  0
  4  5  1  0  0  0  0
  5 24  1  0  0  0  0
  5  1  2  0  0  0  0
  6  7  1  0  0  0  0
  6  3  1  0  0  0  0
  8  7  2  0  0  0  0
  9  8  1  0  0  0  0
 10  9  2  0  0  0  0
 10 11  1  0  0  0  0
 11  6  2  0  0  0  0
 12 21  1  0  0  0  0
 12 13  1  0  0  0  0
 14 13  2  0  0  0  0
 15 14  1  0  0  0  0
 16 15  2  0  0  0  0
 16 12  1  0  0  0  0
 18 19  1  0  0  0  0
 18 23  1  0  0  0  0
 18 17  1  1  0  0  0
 20 21  1  0  0  0  0
 20 19  1  0  0  0  0
 21 22  1  6  0  0  0
 22 23  1  0  0  0  0
 24 26  1  0  0  0  0
 25 24  2  0  0  0  0
M  END
>  <minimizedAffinity>
-3.01880097

$$$$

 OpenBabel09082221273D

 26 29  0  0  1  0  0  0  0  0999 V2000
    4.3130   -3.4120   -1.0760 C   0  0  0  0  0  0  0  0  0  0  0  0
    5.1160   -2.8260   -0.0390 C   0  0  0  0  0  3  0  0  0  0  0  0
    4.3760   -2.2480    0.9730 C   0  0  0  0  0  0  0  0  0  0  0  0
    2.7050   -2.4380    0.6750 S   0  0  0  0  0  0  0  0  0  0  0  0
    2.9680   -3.3680   -0.7500 C   0  0  0  0  0  0  0  0  0  0  0  0
    4.8510   -1.5120    2.1530 C   0  0  0  0  0  0  0  0  0  0  0  0
    3.9850   -0.7210    2.9230 C   0  0  0  0  0  3  0  0  0  0  0  0
    4.4510   -0.0380    4.0500 C   0  0  0  0  0  3  0  0  0  0  0  0
    5.7900   -0.1400    4.4240 C   0  0  0  0  0  3  0  0  0  0  0  0
    6.6620   -0.9240    3.6720 C   0  0  0  0  0  3  0  0  0  0  0  0
    6.1950   -1.6080    2.5450 C   0  0  0  0  0  3  0  0  0  0  0  0
    5.6130   -5.2050   -2.4960 N   0  0  0  0  0  0  0  0  0  0  0  0
    5.9670   -5.3090   -3.8130 N   0  0  0  0  0  0  0  0  0  0  0  0
    5.5480   -4.2270   -4.4480 N   0  0  0  0  0  0  0  0  0  0  0  0
    4.9210   -3.4330   -3.5400 C   0  0  0  0  0  3  0  0  0  0  0  0
    4.9500   -4.0140   -2.2890 C   0  0  0  0  0  0  0  0  0  0  0  0
    5.5710   -9.8790    0.9720 C   0  0  0  0  0  1  0  0  0  0  0  0
    5.3310   -8.4840    0.3980 C   0  0  1  0  0  3  0  0  0  0  0  0
    6.6630   -7.7550    0.1740 C   0  0  0  0  0  2  0  0  0  0  0  0
    6.4580   -6.3720   -0.4470 C   0  0  0  0  0  2  0  0  0  0  0  0
    5.6380   -6.4560   -1.7460 C   0  0  1  0  0  3  0  0  0  0  0  0
    4.3040   -7.1800   -1.5160 C   0  0  0  0  0  2  0  0  0  0  0  0
    4.5240   -8.5660   -0.9050 C   0  0  0  0  0  2  0  0  0  0  0  0
    1.8370   -4.0440   -1.4500 C   0  0  0  0  0  0  0  0  0  0  0  0
    1.3490   -3.4640   -2.4690 O   0  0  0  0  0  0  0  0  0  0  0  0
    1.4450   -5.1560   -0.9820 O   0  0  0  0  0  1  0  0  0  0  0  0
  1  5  2  0  0  0  0
  1  2  1  0  0  0  0
  2  3  2  0  0  0  0
  3  6  1  0  0  0  0
  4  3  1  0  0  0  0
  5  4  1  0  0  0  0
  6 11  2  0  0  0  0
  6  7  1  0  0  0  0
  7  8  2  0  0  0  0
  8  9  1  0  0  0  0
 10  9  2  0  0  0  0
 11 10  1  0  0  0  0
 12 16  1  0  0  0  0
 13 12  1  0  0  0  0
 14 13  2  0  0  0  0
 14 15  1  0  0  0  0
 15 16  2  0  0  0  0
 16  1  1  0  0  0  0
 18 17  1  6  0  0  0
 19 18  1  0  0  0  0
 20 19  1  0  0  0  0
 21 12  1  1  0  0  0
 21 22  1  0  0  0  0
 21 20  1  0  0  0  0
 22 23  1  0  0  0  0
 23 18  1  0  0  0  0
 24 26  1  0  0  0  0
 24  5  1  0  0  0  0
 25 24  2  0  0  0  0
M  END
>  <minimizedAffinity>
-2.93580246

$$$$
