
 OpenBabel09092210413D

 26 29  0  0  1  0  0  0  0  0999 V2000
    4.2960   -1.6660    2.3700 C   0  0  0  0  0  0  0  0  0  0  0  0
    4.0770   -2.5650    1.2710 C   0  0  0  0  0  3  0  0  0  0  0  0
    5.2390   -2.9520    0.6340 C   0  0  0  0  0  0  0  0  0  0  0  0
    6.5980   -2.2420    1.3870 S   0  0  0  0  0  0  0  0  0  0  0  0
    5.6480   -1.4950    2.6130 C   0  0  0  0  0  0  0  0  0  0  0  0
    5.3970   -3.8070   -0.5510 C   0  0  0  0  0  0  0  0  0  0  0  0
    6.1850   -4.9670   -0.5200 C   0  0  0  0  0  3  0  0  0  0  0  0
    6.3130   -5.7740   -1.6540 C   0  0  0  0  0  3  0  0  0  0  0  0
    5.6520   -5.4340   -2.8320 C   0  0  0  0  0  3  0  0  0  0  0  0
    4.8630   -4.2870   -2.8780 C   0  0  0  0  0  3  0  0  0  0  0  0
    4.7340   -3.4800   -1.7440 C   0  0  0  0  0  3  0  0  0  0  0  0
    2.7710    0.2160    3.3970 N   0  0  0  0  0  0  0  0  0  0  0  0
    1.5910    0.2200    4.0900 N   0  0  0  0  0  0  0  0  0  0  0  0
    1.1990   -1.0320    4.2600 N   0  0  0  0  0  0  0  0  0  0  0  0
    2.1240   -1.8370    3.6730 C   0  0  0  0  0  3  0  0  0  0  0  0
    3.1410   -1.0840    3.1230 C   0  0  0  0  0  0  0  0  0  0  0  0
    3.6470    5.4170    0.9370 C   0  0  0  0  0  1  0  0  0  0  0  0
    3.0240    4.2460    1.6930 C   0  0  1  0  0  3  0  0  0  0  0  0
    2.8920    3.0200    0.7790 C   0  0  0  0  0  2  0  0  0  0  0  0
    2.3150    1.8140    1.5230 C   0  0  0  0  0  2  0  0  0  0  0  0
    3.1350    1.4890    2.7830 C   0  0  1  0  0  3  0  0  0  0  0  0
    3.2590    2.7150    3.6990 C   0  0  0  0  0  2  0  0  0  0  0  0
    3.8470    3.9110    2.9450 C   0  0  0  0  0  2  0  0  0  0  0  0
    6.2860   -0.8160    3.7780 C   0  0  0  0  0  0  0  0  0  0  0  0
    6.6630   -1.5460    4.7470 O   0  0  0  0  0  1  0  0  0  0  0  0
    6.4110    0.4450    3.7190 O   0  0  0  0  0  0  0  0  0  0  0  0
  1  5  2  0  0  0  0
  1 16  1  0  0  0  0
  2  1  1  0  0  0  0
  3  2  2  0  0  0  0
  3  4  1  0  0  0  0
  4  5  1  0  0  0  0
  5 24  1  0  0  0  0
  6  7  1  0  0  0  0
  6  3  1  0  0  0  0
  8  7  2  0  0  0  0
  9  8  1  0  0  0  0
 10  9  2  0  0  0  0
 10 11  1  0  0  0  0
 11  6  2  0  0  0  0
 12 13  1  0  0  0  0
 13 14  2  0  0  0  0
 15 14  1  0  0  0  0
 16 12  1  0  0  0  0
 16 15  2  0  0  0  0
 18 17  1  6  0  0  0
 18 23  1  0  0  0  0
 19 20  1  0  0  0  0
 19 18  1  0  0  0  0
 21 20  1  6  0  0  0
 21 12  1  0  0  0  0
 21 22  1  0  0  0  0
 23 22  1  0  0  0  0
 24 25  1  0  0  0  0
 26 24  2  0  0  0  0
M  END
>  <minimizedAffinity>
-3.32948565

$$$$
