
 OpenBabel09092210413D

 26 29  0  0  1  0  0  0  0  0999 V2000
    1.9090    1.5380    1.7590 C   0  0  0  0  0  0  0  0  0  0  0  0
    3.1930    1.0150    2.1330 C   0  0  0  0  0  3  0  0  0  0  0  0
    3.3450   -0.3280    1.8560 C   0  0  0  0  0  0  0  0  0  0  0  0
    1.9350   -0.9490    1.1180 S   0  0  0  0  0  0  0  0  0  0  0  0
    1.1610    0.5880    1.0850 C   0  0  0  0  0  0  0  0  0  0  0  0
    4.4880   -1.2040    2.1500 C   0  0  0  0  0  0  0  0  0  0  0  0
    4.7970   -1.5920    3.4630 C   0  0  0  0  0  3  0  0  0  0  0  0
    5.8810   -2.4360    3.7230 C   0  0  0  0  0  3  0  0  0  0  0  0
    6.6670   -2.9060    2.6740 C   0  0  0  0  0  3  0  0  0  0  0  0
    6.3720   -2.5330    1.3640 C   0  0  0  0  0  3  0  0  0  0  0  0
    5.2870   -1.6890    1.1040 C   0  0  0  0  0  3  0  0  0  0  0  0
    1.7980    4.1420    1.3980 N   0  0  0  0  0  0  0  0  0  0  0  0
    1.1990    5.1760    2.0650 N   0  0  0  0  0  0  0  0  0  0  0  0
    0.5730    4.6880    3.1230 N   0  0  0  0  0  0  0  0  0  0  0  0
    0.7660    3.3420    3.1310 C   0  0  0  0  0  3  0  0  0  0  0  0
    1.5450    2.9580    2.0590 C   0  0  0  0  0  0  0  0  0  0  0  0
    3.5140    4.7400   -4.1310 C   0  0  0  0  0  1  0  0  0  0  0  0
    3.0600    4.1470   -2.7990 C   0  0  1  0  0  3  0  0  0  0  0  0
    4.0580    4.4920   -1.6850 C   0  0  0  0  0  2  0  0  0  0  0  0
    3.6040    3.9520   -0.3270 C   0  0  0  0  0  2  0  0  0  0  0  0
    2.1850    4.4330    0.0210 C   0  0  1  0  0  3  0  0  0  0  0  0
    1.1890    4.0810   -1.0920 C   0  0  0  0  0  2  0  0  0  0  0  0
    1.6490    4.6350   -2.4420 C   0  0  0  0  0  2  0  0  0  0  0  0
   -0.1260    0.7900    0.3570 C   0  0  0  0  0  0  0  0  0  0  0  0
   -0.0900    0.7660   -0.9130 O   0  0  0  0  0  0  0  0  0  0  0  0
   -1.1680    0.9680    1.0570 O   0  0  0  0  0  1  0  0  0  0  0  0
  1 16  1  0  0  0  0
  1  2  1  0  0  0  0
  3  2  2  0  0  0  0
  3  6  1  0  0  0  0
  4  3  1  0  0  0  0
  5  4  1  0  0  0  0
  5  1  2  0  0  0  0
  6  7  1  0  0  0  0
  7  8  2  0  0  0  0
  9  8  1  0  0  0  0
 10  9  2  0  0  0  0
 11 10  1  0  0  0  0
 11  6  2  0  0  0  0
 12 16  1  0  0  0  0
 12 13  1  0  0  0  0
 13 14  2  0  0  0  0
 14 15  1  0  0  0  0
 16 15  2  0  0  0  0
 18 17  1  6  0  0  0
 18 23  1  0  0  0  0
 18 19  1  0  0  0  0
 19 20  1  0  0  0  0
 21 20  1  6  0  0  0
 21 22  1  0  0  0  0
 21 12  1  0  0  0  0
 23 22  1  0  0  0  0
 24 26  1  0  0  0  0
 24  5  1  0  0  0  0
 25 24  2  0  0  0  0
M  END
>  <minimizedAffinity>
-3.30651855

$$$$
