
 OpenBabel09092210413D

 26 29  0  0  1  0  0  0  0  0999 V2000
    5.2890   -2.8710    1.5780 C   0  0  0  0  0  0  0  0  0  0  0  0
    5.2680   -2.7750    0.1450 C   0  0  0  0  0  3  0  0  0  0  0  0
    5.1910   -3.9980   -0.4900 C   0  0  0  0  0  0  0  0  0  0  0  0
    5.1200   -5.2630    0.6550 S   0  0  0  0  0  0  0  0  0  0  0  0
    5.1000   -4.1790    1.9930 C   0  0  0  0  0  0  0  0  0  0  0  0
    5.2060   -4.2880   -1.9310 C   0  0  0  0  0  0  0  0  0  0  0  0
    5.9080   -5.3850   -2.4510 C   0  0  0  0  0  3  0  0  0  0  0  0
    5.9020   -5.6530   -3.8230 C   0  0  0  0  0  3  0  0  0  0  0  0
    5.1910   -4.8280   -4.6930 C   0  0  0  0  0  3  0  0  0  0  0  0
    4.4860   -3.7360   -4.1910 C   0  0  0  0  0  3  0  0  0  0  0  0
    4.4920   -3.4690   -2.8190 C   0  0  0  0  0  3  0  0  0  0  0  0
    4.5610   -0.6740    2.8280 N   0  0  0  0  0  0  0  0  0  0  0  0
    5.1990    0.2190    3.6460 N   0  0  0  0  0  0  0  0  0  0  0  0
    6.4600   -0.1590    3.7770 N   0  0  0  0  0  0  0  0  0  0  0  0
    6.6280   -1.2940    3.0490 C   0  0  0  0  0  3  0  0  0  0  0  0
    5.4500   -1.6480    2.4250 C   0  0  0  0  0  0  0  0  0  0  0  0
   -1.2510   -0.9410    2.6460 C   0  0  0  0  0  1  0  0  0  0  0  0
    0.2320   -1.2650    2.4770 C   0  0  1  0  0  3  0  0  0  0  0  0
    0.9370   -0.1690    1.6670 C   0  0  0  0  0  2  0  0  0  0  0  0
    2.4360   -0.4410    1.5220 C   0  0  0  0  0  2  0  0  0  0  0  0
    3.1030   -0.6440    2.8930 C   0  0  1  0  0  3  0  0  0  0  0  0
    2.4000   -1.7460    3.6980 C   0  0  0  0  0  2  0  0  0  0  0  0
    0.9040   -1.4550    3.8440 C   0  0  0  0  0  2  0  0  0  0  0  0
    4.8530   -4.6680    3.3800 C   0  0  0  0  0  0  0  0  0  0  0  0
    5.8380   -4.6740    4.1820 O   0  0  0  0  0  1  0  0  0  0  0  0
    3.6740   -5.0400    3.6640 O   0  0  0  0  0  0  0  0  0  0  0  0
  1  5  2  0  0  0  0
  1 16  1  0  0  0  0
  2  1  1  0  0  0  0
  3  2  2  0  0  0  0
  3  4  1  0  0  0  0
  4  5  1  0  0  0  0
  5 24  1  0  0  0  0
  6  3  1  0  0  0  0
  7  6  1  0  0  0  0
  8  7  2  0  0  0  0
  9 10  2  0  0  0  0
  9  8  1  0  0  0  0
 10 11  1  0  0  0  0
 11  6  2  0  0  0  0
 12 13  1  0  0  0  0
 13 14  2  0  0  0  0
 15 14  1  0  0  0  0
 16 12  1  0  0  0  0
 16 15  2  0  0  0  0
 18 17  1  1  0  0  0
 18 23  1  0  0  0  0
 19 18  1  0  0  0  0
 20 19  1  0  0  0  0
 21 12  1  6  0  0  0
 21 20  1  0  0  0  0
 21 22  1  0  0  0  0
 22 23  1  0  0  0  0
 24 26  2  0  0  0  0
 24 25  1  0  0  0  0
M  END
>  <minimizedAffinity>
-3.19450212

$$$$
