
 OpenBabel09092210413D

 26 29  0  0  1  0  0  0  0  0999 V2000
    4.3130   -3.4120   -1.0760 C   0  0  0  0  0  0  0  0  0  0  0  0
    5.1160   -2.8260   -0.0390 C   0  0  0  0  0  3  0  0  0  0  0  0
    4.3760   -2.2480    0.9730 C   0  0  0  0  0  0  0  0  0  0  0  0
    2.7050   -2.4380    0.6750 S   0  0  0  0  0  0  0  0  0  0  0  0
    2.9680   -3.3680   -0.7500 C   0  0  0  0  0  0  0  0  0  0  0  0
    4.8510   -1.5120    2.1530 C   0  0  0  0  0  0  0  0  0  0  0  0
    3.9850   -0.7210    2.9230 C   0  0  0  0  0  3  0  0  0  0  0  0
    4.4510   -0.0380    4.0500 C   0  0  0  0  0  3  0  0  0  0  0  0
    5.7900   -0.1400    4.4240 C   0  0  0  0  0  3  0  0  0  0  0  0
    6.6620   -0.9240    3.6720 C   0  0  0  0  0  3  0  0  0  0  0  0
    6.1950   -1.6080    2.5450 C   0  0  0  0  0  3  0  0  0  0  0  0
    5.6130   -5.2050   -2.4960 N   0  0  0  0  0  0  0  0  0  0  0  0
    5.9670   -5.3090   -3.8130 N   0  0  0  0  0  0  0  0  0  0  0  0
    5.5480   -4.2270   -4.4480 N   0  0  0  0  0  0  0  0  0  0  0  0
    4.9210   -3.4330   -3.5400 C   0  0  0  0  0  3  0  0  0  0  0  0
    4.9500   -4.0140   -2.2890 C   0  0  0  0  0  0  0  0  0  0  0  0
    5.5710   -9.8790    0.9720 C   0  0  0  0  0  1  0  0  0  0  0  0
    5.3310   -8.4840    0.3980 C   0  0  1  0  0  3  0  0  0  0  0  0
    6.6630   -7.7550    0.1740 C   0  0  0  0  0  2  0  0  0  0  0  0
    6.4580   -6.3720   -0.4470 C   0  0  0  0  0  2  0  0  0  0  0  0
    5.6380   -6.4560   -1.7460 C   0  0  1  0  0  3  0  0  0  0  0  0
    4.3040   -7.1800   -1.5160 C   0  0  0  0  0  2  0  0  0  0  0  0
    4.5240   -8.5660   -0.9050 C   0  0  0  0  0  2  0  0  0  0  0  0
    1.8370   -4.0440   -1.4500 C   0  0  0  0  0  0  0  0  0  0  0  0
    1.3490   -3.4640   -2.4690 O   0  0  0  0  0  0  0  0  0  0  0  0
    1.4450   -5.1560   -0.9820 O   0  0  0  0  0  1  0  0  0  0  0  0
  1  5  2  0  0  0  0
  1  2  1  0  0  0  0
  2  3  2  0  0  0  0
  3  6  1  0  0  0  0
  4  3  1  0  0  0  0
  5  4  1  0  0  0  0
  6 11  2  0  0  0  0
  6  7  1  0  0  0  0
  7  8  2  0  0  0  0
  8  9  1  0  0  0  0
 10  9  2  0  0  0  0
 11 10  1  0  0  0  0
 12 16  1  0  0  0  0
 13 12  1  0  0  0  0
 14 13  2  0  0  0  0
 14 15  1  0  0  0  0
 15 16  2  0  0  0  0
 16  1  1  0  0  0  0
 18 17  1  6  0  0  0
 19 18  1  0  0  0  0
 20 19  1  0  0  0  0
 21 12  1  1  0  0  0
 21 22  1  0  0  0  0
 21 20  1  0  0  0  0
 22 23  1  0  0  0  0
 23 18  1  0  0  0  0
 24 26  1  0  0  0  0
 24  5  1  0  0  0  0
 25 24  2  0  0  0  0
M  END
>  <minimizedAffinity>
-2.93580246

$$$$
