
 OpenBabel09122223153D

 25 27  0  0  1  0  0  0  0  0999 V2000
    2.3040   -3.7280    6.6700 C   0  0  0  0  0  1  0  0  0  0  0  0
    3.4420   -2.9340    6.0140 C   0  0  2  0  0  0  0  0  0  0  0  0
    3.4070   -2.9720    4.4880 C   0  0  1  0  0  3  0  0  0  0  0  0
    4.0440   -4.3180    4.1860 C   0  0  2  0  0  3  0  0  0  0  0  0
    5.0730   -4.5140    5.1860 O   0  0  0  0  0  0  0  0  0  0  0  0
    4.8090   -3.6100    6.2910 C   0  0  1  0  0  3  0  0  0  0  0  0
    5.9330   -2.7030    6.4410 N   0  0  0  0  0  0  0  0  0  0  0  0
    7.1190   -2.7040    5.7570 C   0  0  0  0  0  3  0  0  0  0  0  0
    7.9420   -1.7730    6.1950 N   0  0  0  0  0  0  0  0  0  0  0  0
    7.2610   -1.1520    7.2220 C   0  0  0  0  0  0  0  0  0  0  0  0
    7.5950   -0.0980    8.0890 C   0  0  0  0  0  0  0  0  0  0  0  0
    8.8040    0.5570    8.0460 N   0  0  0  0  0  0  0  0  0  0  0  0
    6.6850    0.2880    9.0130 N   0  0  0  0  0  0  0  0  0  0  0  0
    5.4980   -0.3530    9.0560 C   0  0  0  0  0  3  0  0  0  0  0  0
    5.0610   -1.3680    8.2780 N   0  0  0  0  0  0  0  0  0  0  0  0
    6.0100   -1.7190    7.3900 C   0  0  0  0  0  0  0  0  0  0  0  0
    9.4920    0.2740    7.3640 H   0  0  0  0  0  0  0  0  0  0  0  0
    8.9710    1.2990    8.7060 H   0  0  0  0  0  0  0  0  0  0  0  0
    3.2920   -1.5800    6.4450 O   0  0  0  0  0  0  0  0  0  0  0  0
    3.5900   -1.5200    7.3780 H   0  0  0  0  0  0  0  0  0  0  0  0
    2.1020   -2.8410    3.9470 O   0  0  0  0  0  0  0  0  0  0  0  0
    1.7440   -2.0030    4.3000 H   0  0  0  0  0  0  0  0  0  0  0  0
    4.6690   -4.3860    2.7960 C   0  0  0  0  0  2  0  0  0  0  0  0
    6.0890   -4.4910    2.9100 O   0  0  0  0  0  0  0  0  0  0  0  0
    6.3640   -3.8180    3.5600 H   0  0  0  0  0  0  0  0  0  0  0  0
  2  6  1  0  0  0  0
  2 19  1  0  0  0  0
  2  1  1  1  0  0  0
  3 21  1  1  0  0  0
  3  2  1  0  0  0  0
  4 23  1  6  0  0  0
  4  3  1  0  0  0  0
  4  5  1  0  0  0  0
  5  6  1  0  0  0  0
  6  7  1  6  0  0  0
  7 16  1  0  0  0  0
  8  9  2  0  0  0  0
  8  7  1  0  0  0  0
  9 10  1  0  0  0  0
 10 16  2  0  0  0  0
 10 11  1  0  0  0  0
 11 13  2  0  0  0  0
 12 11  1  0  0  0  0
 12 18  1  0  0  0  0
 13 14  1  0  0  0  0
 15 14  2  0  0  0  0
 16 15  1  0  0  0  0
 17 12  1  0  0  0  0
 19 20  1  0  0  0  0
 21 22  1  0  0  0  0
 23 24  1  0  0  0  0
 24 25  1  0  0  0  0
M  END
>  <minimizedAffinity>
-4.69879007

$$$$

 OpenBabel09122223153D

 25 27  0  0  1  0  0  0  0  0999 V2000
    3.0110   -1.6560    8.9700 C   0  0  0  0  0  1  0  0  0  0  0  0
    3.7180   -1.6670    7.6090 C   0  0  2  0  0  0  0  0  0  0  0  0
    2.7540   -1.6620    6.4240 C   0  0  1  0  0  3  0  0  0  0  0  0
    2.3500   -3.1240    6.3330 C   0  0  2  0  0  3  0  0  0  0  0  0
    3.5250   -3.8930    6.6870 O   0  0  0  0  0  0  0  0  0  0  0  0
    4.4480   -3.0150    7.3840 C   0  0  1  0  0  3  0  0  0  0  0  0
    5.6870   -2.9350    6.6310 N   0  0  0  0  0  0  0  0  0  0  0  0
    6.8530   -2.3110    6.9820 C   0  0  0  0  0  3  0  0  0  0  0  0
    7.7600   -2.3840    6.0280 N   0  0  0  0  0  0  0  0  0  0  0  0
    7.1420   -3.0750    5.0050 C   0  0  0  0  0  0  0  0  0  0  0  0
    7.5690   -3.4670    3.7250 C   0  0  0  0  0  0  0  0  0  0  0  0
    8.8200   -3.1850    3.2300 N   0  0  0  0  0  0  0  0  0  0  0  0
    6.7040   -4.1510    2.9400 N   0  0  0  0  0  0  0  0  0  0  0  0
    5.4750   -4.4290    3.4250 C   0  0  0  0  0  3  0  0  0  0  0  0
    4.9550   -4.1140    4.6330 N   0  0  0  0  0  0  0  0  0  0  0  0
    5.8520   -3.4240    5.3620 C   0  0  0  0  0  0  0  0  0  0  0  0
    9.4720   -2.6700    3.8040 H   0  0  0  0  0  0  0  0  0  0  0  0
    9.0500   -3.4950    2.3000 H   0  0  0  0  0  0  0  0  0  0  0  0
    4.5180   -0.4840    7.5570 O   0  0  0  0  0  0  0  0  0  0  0  0
    5.3020   -0.6170    8.1310 H   0  0  0  0  0  0  0  0  0  0  0  0
    1.6480   -0.7890    6.5970 O   0  0  0  0  0  0  0  0  0  0  0  0
    2.0250    0.0970    6.7650 H   0  0  0  0  0  0  0  0  0  0  0  0
    1.8790   -3.5290    4.9400 C   0  0  0  0  0  2  0  0  0  0  0  0
    2.2800   -2.5420    3.9900 O   0  0  0  0  0  0  0  0  0  0  0  0
    2.0460   -1.6760    4.3750 H   0  0  0  0  0  0  0  0  0  0  0  0
  2  1  1  1  0  0  0
  3 21  1  1  0  0  0
  3  2  1  0  0  0  0
  4 23  1  6  0  0  0
  4  3  1  0  0  0  0
  4  5  1  0  0  0  0
  5  6  1  0  0  0  0
  6  7  1  6  0  0  0
  6  2  1  0  0  0  0
  7  8  1  0  0  0  0
  9  8  2  0  0  0  0
 10 16  1  0  0  0  0
 10  9  1  0  0  0  0
 11 10  2  0  0  0  0
 12 11  1  0  0  0  0
 12 17  1  0  0  0  0
 13 14  2  0  0  0  0
 13 11  1  0  0  0  0
 14 15  1  0  0  0  0
 15 16  2  0  0  0  0
 16  7  1  0  0  0  0
 18 12  1  0  0  0  0
 19  2  1  0  0  0  0
 19 20  1  0  0  0  0
 21 22  1  0  0  0  0
 24 25  1  0  0  0  0
 24 23  1  0  0  0  0
M  END
>  <minimizedAffinity>
-4.569561

$$$$

 OpenBabel09122223153D

 25 27  0  0  1  0  0  0  0  0999 V2000
    8.7100   -1.2010    8.8580 C   0  0  0  0  0  1  0  0  0  0  0  0
    7.6570   -1.2590    7.7440 C   0  0  2  0  0  0  0  0  0  0  0  0
    6.4350   -0.3850    8.0180 C   0  0  1  0  0  3  0  0  0  0  0  0
    5.6230   -1.2560    8.9630 C   0  0  2  0  0  3  0  0  0  0  0  0
    5.8200   -2.6230    8.5270 O   0  0  0  0  0  0  0  0  0  0  0  0
    7.0030   -2.6630    7.6850 C   0  0  1  0  0  3  0  0  0  0  0  0
    6.6260   -3.1200    6.3600 N   0  0  0  0  0  0  0  0  0  0  0  0
    7.4240   -3.2740    5.2580 C   0  0  0  0  0  3  0  0  0  0  0  0
    6.7350   -3.6490    4.1980 N   0  0  0  0  0  0  0  0  0  0  0  0
    5.4280   -3.7250    4.6340 C   0  0  0  0  0  0  0  0  0  0  0  0
    4.2250   -4.0580    3.9880 C   0  0  0  0  0  0  0  0  0  0  0  0
    4.1550   -4.3970    2.6570 N   0  0  0  0  0  0  0  0  0  0  0  0
    3.0810   -4.0390    4.7110 N   0  0  0  0  0  0  0  0  0  0  0  0
    3.1490   -3.7060    6.0170 C   0  0  0  0  0  3  0  0  0  0  0  0
    4.2380   -3.3770    6.7470 N   0  0  0  0  0  0  0  0  0  0  0  0
    5.3410   -3.3980    5.9750 C   0  0  0  0  0  0  0  0  0  0  0  0
    5.0010   -4.4090    2.1070 H   0  0  0  0  0  0  0  0  0  0  0  0
    3.2540   -4.6170    2.2650 H   0  0  0  0  0  0  0  0  0  0  0  0
    8.2980   -0.7960    6.5540 O   0  0  0  0  0  0  0  0  0  0  0  0
    8.8940   -1.5040    6.2300 H   0  0  0  0  0  0  0  0  0  0  0  0
    6.7560    0.8830    8.5680 O   0  0  0  0  0  0  0  0  0  0  0  0
    7.3730    1.3040    7.9380 H   0  0  0  0  0  0  0  0  0  0  0  0
    4.1330   -0.9280    8.9470 C   0  0  0  0  0  2  0  0  0  0  0  0
    3.7960   -0.2790    7.7210 O   0  0  0  0  0  0  0  0  0  0  0  0
    4.4700    0.4110    7.5790 H   0  0  0  0  0  0  0  0  0  0  0  0
  2  3  1  0  0  0  0
  2  1  1  1  0  0  0
  3 21  1  1  0  0  0
  3  4  1  0  0  0  0
  4 23  1  6  0  0  0
  5  4  1  0  0  0  0
  6  7  1  6  0  0  0
  6  2  1  0  0  0  0
  6  5  1  0  0  0  0
  8  7  1  0  0  0  0
  9 10  1  0  0  0  0
  9  8  2  0  0  0  0
 10 16  1  0  0  0  0
 11 10  2  0  0  0  0
 11 13  1  0  0  0  0
 12 11  1  0  0  0  0
 13 14  2  0  0  0  0
 14 15  1  0  0  0  0
 16  7  1  0  0  0  0
 16 15  2  0  0  0  0
 17 12  1  0  0  0  0
 18 12  1  0  0  0  0
 19  2  1  0  0  0  0
 20 19  1  0  0  0  0
 22 21  1  0  0  0  0
 24 23  1  0  0  0  0
 25 24  1  0  0  0  0
M  END
>  <minimizedAffinity>
-4.53524208

$$$$

 OpenBabel09122223153D

 25 27  0  0  1  0  0  0  0  0999 V2000
    2.1990   -4.5140    7.3950 C   0  0  0  0  0  1  0  0  0  0  0  0
    3.0490   -3.3080    6.9740 C   0  0  2  0  0  0  0  0  0  0  0  0
    3.0920   -3.0940    5.4620 C   0  0  1  0  0  3  0  0  0  0  0  0
    4.1390   -4.1050    5.0250 C   0  0  2  0  0  3  0  0  0  0  0  0
    5.1330   -4.1410    6.0780 O   0  0  0  0  0  0  0  0  0  0  0  0
    4.5470   -3.5650    7.2740 C   0  0  1  0  0  3  0  0  0  0  0  0
    5.3150   -2.3950    7.6620 N   0  0  0  0  0  0  0  0  0  0  0  0
    4.9690   -1.4100    8.5480 C   0  0  0  0  0  3  0  0  0  0  0  0
    5.8820   -0.4610    8.6110 N   0  0  0  0  0  0  0  0  0  0  0  0
    6.8560   -0.8440    7.7120 C   0  0  0  0  0  0  0  0  0  0  0  0
    8.0700   -0.2600    7.3140 C   0  0  0  0  0  0  0  0  0  0  0  0
    8.5320    0.9320    7.8180 N   0  0  0  0  0  0  0  0  0  0  0  0
    8.8190   -0.9020    6.3860 N   0  0  0  0  0  0  0  0  0  0  0  0
    8.3670   -2.0740    5.8910 C   0  0  0  0  0  3  0  0  0  0  0  0
    7.2280   -2.7340    6.1980 N   0  0  0  0  0  0  0  0  0  0  0  0
    6.5190   -2.0450    7.1110 C   0  0  0  0  0  0  0  0  0  0  0  0
    7.9790    1.4220    8.5060 H   0  0  0  0  0  0  0  0  0  0  0  0
    9.4100    1.2900    7.4780 H   0  0  0  0  0  0  0  0  0  0  0  0
    2.4560   -2.1600    7.5850 O   0  0  0  0  0  0  0  0  0  0  0  0
    2.6790   -2.1710    8.5400 H   0  0  0  0  0  0  0  0  0  0  0  0
    1.8380   -3.2820    4.8270 O   0  0  0  0  0  0  0  0  0  0  0  0
    1.2160   -2.6680    5.2650 H   0  0  0  0  0  0  0  0  0  0  0  0
    4.8110   -3.7380    3.7060 C   0  0  0  0  0  2  0  0  0  0  0  0
    4.0450   -2.7340    3.0380 O   0  0  0  0  0  0  0  0  0  0  0  0
    3.1150   -3.0280    3.0710 H   0  0  0  0  0  0  0  0  0  0  0  0
  2  6  1  0  0  0  0
  2  1  1  1  0  0  0
  2 19  1  0  0  0  0
  3 21  1  6  0  0  0
  3  2  1  0  0  0  0
  4 23  1  6  0  0  0
  4  3  1  0  0  0  0
  4  5  1  0  0  0  0
  5  6  1  0  0  0  0
  6  7  1  6  0  0  0
  7  8  1  0  0  0  0
  8  9  2  0  0  0  0
 10  9  1  0  0  0  0
 11 10  1  0  0  0  0
 11 12  1  0  0  0  0
 12 17  1  0  0  0  0
 13 11  2  0  0  0  0
 14 15  2  0  0  0  0
 14 13  1  0  0  0  0
 15 16  1  0  0  0  0
 16  7  1  0  0  0  0
 16 10  2  0  0  0  0
 18 12  1  0  0  0  0
 19 20  1  0  0  0  0
 21 22  1  0  0  0  0
 24 25  1  0  0  0  0
 24 23  1  0  0  0  0
M  END
>  <minimizedAffinity>
-4.43135548

$$$$

 OpenBabel09122223153D

 25 27  0  0  1  0  0  0  0  0999 V2000
    2.3900   -4.5140    6.0170 C   0  0  0  0  0  1  0  0  0  0  0  0
    3.2790   -3.2740    5.8620 C   0  0  2  0  0  0  0  0  0  0  0  0
    3.8510   -3.1100    4.4550 C   0  0  1  0  0  3  0  0  0  0  0  0
    5.0290   -4.0700    4.4740 C   0  0  2  0  0  3  0  0  0  0  0  0
    5.5810   -4.0090    5.8110 O   0  0  0  0  0  0  0  0  0  0  0  0
    4.5810   -3.4280    6.6890 C   0  0  1  0  0  3  0  0  0  0  0  0
    5.1060   -2.2010    7.2600 N   0  0  0  0  0  0  0  0  0  0  0  0
    4.4100   -1.1550    7.8050 C   0  0  0  0  0  3  0  0  0  0  0  0
    5.2070   -0.1710    8.1720 N   0  0  0  0  0  0  0  0  0  0  0  0
    6.4750   -0.5950    7.8310 C   0  0  0  0  0  0  0  0  0  0  0  0
    7.7440   -0.0030    7.9510 C   0  0  0  0  0  0  0  0  0  0  0  0
    7.9420    1.2460    8.4910 N   0  0  0  0  0  0  0  0  0  0  0  0
    8.8200   -0.6950    7.5120 N   0  0  0  0  0  0  0  0  0  0  0  0
    8.6270   -1.9220    6.9830 C   0  0  0  0  0  3  0  0  0  0  0  0
    7.4650   -2.5950    6.8210 N   0  0  0  0  0  0  0  0  0  0  0  0
    6.4310   -1.8550    7.2610 C   0  0  0  0  0  0  0  0  0  0  0  0
    7.1460    1.7740    8.8170 H   0  0  0  0  0  0  0  0  0  0  0  0
    8.8820    1.6050    8.5370 H   0  0  0  0  0  0  0  0  0  0  0  0
    2.4560   -2.1440    6.1590 O   0  0  0  0  0  0  0  0  0  0  0  0
    2.3230   -2.1080    7.1300 H   0  0  0  0  0  0  0  0  0  0  0  0
    2.9170   -3.3970    3.4260 O   0  0  0  0  0  0  0  0  0  0  0  0
    2.1530   -2.8070    3.5810 H   0  0  0  0  0  0  0  0  0  0  0  0
    6.1110   -3.7090    3.4610 C   0  0  0  0  0  2  0  0  0  0  0  0
    7.3290   -3.4080    4.1440 O   0  0  0  0  0  0  0  0  0  0  0  0
    7.0940   -2.8060    4.8750 H   0  0  0  0  0  0  0  0  0  0  0  0
  2  1  1  1  0  0  0
  2 19  1  0  0  0  0
  2  6  1  0  0  0  0
  3 21  1  6  0  0  0
  3  4  1  0  0  0  0
  3  2  1  0  0  0  0
  4 23  1  6  0  0  0
  4  5  1  0  0  0  0
  5  6  1  0  0  0  0
  6  7  1  6  0  0  0
  7 16  1  0  0  0  0
  7  8  1  0  0  0  0
  8  9  2  0  0  0  0
 10 11  1  0  0  0  0
 10  9  1  0  0  0  0
 11 12  1  0  0  0  0
 12 18  1  0  0  0  0
 12 17  1  0  0  0  0
 13 11  2  0  0  0  0
 14 13  1  0  0  0  0
 15 14  2  0  0  0  0
 15 16  1  0  0  0  0
 16 10  2  0  0  0  0
 19 20  1  0  0  0  0
 21 22  1  0  0  0  0
 23 24  1  0  0  0  0
 24 25  1  0  0  0  0
M  END
>  <minimizedAffinity>
-4.30110312

$$$$

 OpenBabel09122223153D

 25 27  0  0  1  0  0  0  0  0999 V2000
    7.8000   -4.1530    8.9010 C   0  0  0  0  0  1  0  0  0  0  0  0
    7.1260   -3.2860    7.8300 C   0  0  2  0  0  0  0  0  0  0  0  0
    7.4510   -1.7990    7.9600 C   0  0  1  0  0  3  0  0  0  0  0  0
    6.4960   -1.3560    9.0560 C   0  0  2  0  0  3  0  0  0  0  0  0
    5.2800   -2.1200    8.8690 O   0  0  0  0  0  0  0  0  0  0  0  0
    5.5890   -3.2660    8.0320 C   0  0  1  0  0  3  0  0  0  0  0  0
    4.8020   -3.1900    6.8150 N   0  0  0  0  0  0  0  0  0  0  0  0
    5.0310   -3.8120    5.6170 C   0  0  0  0  0  3  0  0  0  0  0  0
    4.1450   -3.4680    4.7040 N   0  0  0  0  0  0  0  0  0  0  0  0
    3.3140   -2.5670    5.3390 C   0  0  0  0  0  0  0  0  0  0  0  0
    2.1920   -1.8380    4.9090 C   0  0  0  0  0  0  0  0  0  0  0  0
    1.6890   -1.9150    3.6320 N   0  0  0  0  0  0  0  0  0  0  0  0
    1.5800   -1.0180    5.7960 N   0  0  0  0  0  0  0  0  0  0  0  0
    2.0730   -0.9420    7.0500 C   0  0  0  0  0  3  0  0  0  0  0  0
    3.1330   -1.5940    7.5800 N   0  0  0  0  0  0  0  0  0  0  0  0
    3.7080   -2.3820    6.6520 C   0  0  0  0  0  0  0  0  0  0  0  0
    2.1400   -2.5190    2.9610 H   0  0  0  0  0  0  0  0  0  0  0  0
    0.8840   -1.3560    3.3990 H   0  0  0  0  0  0  0  0  0  0  0  0
    7.6050   -3.7530    6.5680 O   0  0  0  0  0  0  0  0  0  0  0  0
    7.1610   -4.6050    6.3670 H   0  0  0  0  0  0  0  0  0  0  0  0
    8.8110   -1.5410    8.2700 O   0  0  0  0  0  0  0  0  0  0  0  0
    9.3370   -1.9700    7.5670 H   0  0  0  0  0  0  0  0  0  0  0  0
    6.1730    0.1340    9.0030 C   0  0  0  0  0  2  0  0  0  0  0  0
    7.0150    0.7750    8.0440 O   0  0  0  0  0  0  0  0  0  0  0  0
    7.9210    0.4570    8.2160 H   0  0  0  0  0  0  0  0  0  0  0  0
  2  3  1  0  0  0  0
  2  6  1  0  0  0  0
  2  1  1  1  0  0  0
  3 21  1  1  0  0  0
  3  4  1  0  0  0  0
  4 23  1  6  0  0  0
  5  4  1  0  0  0  0
  6  7  1  6  0  0  0
  6  5  1  0  0  0  0
  8  7  1  0  0  0  0
  9 10  1  0  0  0  0
  9  8  2  0  0  0  0
 10 16  1  0  0  0  0
 11 10  2  0  0  0  0
 11 13  1  0  0  0  0
 12 11  1  0  0  0  0
 13 14  2  0  0  0  0
 14 15  1  0  0  0  0
 16  7  1  0  0  0  0
 16 15  2  0  0  0  0
 17 12  1  0  0  0  0
 18 12  1  0  0  0  0
 19  2  1  0  0  0  0
 20 19  1  0  0  0  0
 22 21  1  0  0  0  0
 24 25  1  0  0  0  0
 24 23  1  0  0  0  0
M  END
>  <minimizedAffinity>
-3.91778898

$$$$

 OpenBabel09122223153D

 25 27  0  0  1  0  0  0  0  0999 V2000
    2.2280   -1.8830    7.4860 C   0  0  0  0  0  1  0  0  0  0  0  0
    3.0650   -2.9640    6.7910 C   0  0  2  0  0  0  0  0  0  0  0  0
    3.5040   -4.0880    7.7280 C   0  0  1  0  0  3  0  0  0  0  0  0
    4.7050   -3.4720    8.4270 C   0  0  2  0  0  3  0  0  0  0  0  0
    5.3730   -2.6500    7.4390 O   0  0  0  0  0  0  0  0  0  0  0  0
    4.4390   -2.3940    6.3560 C   0  0  1  0  0  3  0  0  0  0  0  0
    4.9800   -2.9410    5.1250 N   0  0  0  0  0  0  0  0  0  0  0  0
    4.3030   -3.5280    4.0900 C   0  0  0  0  0  3  0  0  0  0  0  0
    5.1190   -3.9710    3.1540 N   0  0  0  0  0  0  0  0  0  0  0  0
    6.3840   -3.6690    3.6150 C   0  0  0  0  0  0  0  0  0  0  0  0
    7.6690   -3.8870    3.0890 C   0  0  0  0  0  0  0  0  0  0  0  0
    7.8920   -4.5140    1.8860 N   0  0  0  0  0  0  0  0  0  0  0  0
    8.7370   -3.4600    3.8030 N   0  0  0  0  0  0  0  0  0  0  0  0
    8.5190   -2.8430    4.9830 C   0  0  0  0  0  3  0  0  0  0  0  0
    7.3390   -2.5720    5.5860 N   0  0  0  0  0  0  0  0  0  0  0  0
    6.3170   -3.0290    4.8400 C   0  0  0  0  0  0  0  0  0  0  0  0
    7.1030   -4.8410    1.3480 H   0  0  0  0  0  0  0  0  0  0  0  0
    8.8430   -4.6380    1.5790 H   0  0  0  0  0  0  0  0  0  0  0  0
    2.2420   -3.5170    5.7620 O   0  0  0  0  0  0  0  0  0  0  0  0
    2.1950   -2.8710    5.0260 H   0  0  0  0  0  0  0  0  0  0  0  0
    2.4900   -4.5040    8.6280 O   0  0  0  0  0  0  0  0  0  0  0  0
    1.7270   -4.7660    8.0760 H   0  0  0  0  0  0  0  0  0  0  0  0
    5.6820   -4.5120    8.9650 C   0  0  0  0  0  2  0  0  0  0  0  0
    6.8960   -4.4680    8.2150 O   0  0  0  0  0  0  0  0  0  0  0  0
    6.6380   -4.4510    7.2740 H   0  0  0  0  0  0  0  0  0  0  0  0
  2  1  1  1  0  0  0
  2  3  1  0  0  0  0
  3  4  1  0  0  0  0
  3 21  1  1  0  0  0
  4 23  1  6  0  0  0
  5  4  1  0  0  0  0
  6  7  1  6  0  0  0
  6  2  1  0  0  0  0
  6  5  1  0  0  0  0
  8  7  1  0  0  0  0
  9 10  1  0  0  0  0
  9  8  2  0  0  0  0
 10 16  1  0  0  0  0
 11 10  2  0  0  0  0
 11 13  1  0  0  0  0
 12 11  1  0  0  0  0
 13 14  2  0  0  0  0
 14 15  1  0  0  0  0
 16  7  1  0  0  0  0
 16 15  2  0  0  0  0
 17 12  1  0  0  0  0
 18 12  1  0  0  0  0
 19  2  1  0  0  0  0
 20 19  1  0  0  0  0
 22 21  1  0  0  0  0
 24 23  1  0  0  0  0
 25 24  1  0  0  0  0
M  END
>  <minimizedAffinity>
-3.12643242

$$$$

 OpenBabel09122223153D

 25 27  0  0  1  0  0  0  0  0999 V2000
    4.5070   -0.2340    9.0290 C   0  0  0  0  0  1  0  0  0  0  0  0
    4.3620   -1.2640    7.9010 C   0  0  2  0  0  0  0  0  0  0  0  0
    3.1200   -2.1440    8.0400 C   0  0  1  0  0  3  0  0  0  0  0  0
    3.5720   -3.1780    9.0560 C   0  0  2  0  0  3  0  0  0  0  0  0
    4.9730   -3.4290    8.7860 O   0  0  0  0  0  0  0  0  0  0  0  0
    5.4840   -2.3290    7.9870 C   0  0  1  0  0  3  0  0  0  0  0  0
    5.9520   -2.8460    6.7140 N   0  0  0  0  0  0  0  0  0  0  0  0
    7.2380   -2.9220    6.2510 C   0  0  0  0  0  3  0  0  0  0  0  0
    7.2930   -3.3900    5.0200 N   0  0  0  0  0  0  0  0  0  0  0  0
    5.9770   -3.6120    4.6660 C   0  0  0  0  0  0  0  0  0  0  0  0
    5.3730   -4.0930    3.4920 C   0  0  0  0  0  0  0  0  0  0  0  0
    6.0860   -4.4570    2.3740 N   0  0  0  0  0  0  0  0  0  0  0  0
    4.0240   -4.1970    3.4590 N   0  0  0  0  0  0  0  0  0  0  0  0
    3.3230   -3.8400    4.5560 C   0  0  0  0  0  3  0  0  0  0  0  0
    3.7870   -3.3750    5.7370 N   0  0  0  0  0  0  0  0  0  0  0  0
    5.1290   -3.2780    5.7070 C   0  0  0  0  0  0  0  0  0  0  0  0
    7.0930   -4.3780    2.3850 H   0  0  0  0  0  0  0  0  0  0  0  0
    5.5800   -4.7870    1.5680 H   0  0  0  0  0  0  0  0  0  0  0  0
    4.2680   -0.5230    6.6830 O   0  0  0  0  0  0  0  0  0  0  0  0
    5.1610   -0.1850    6.4590 H   0  0  0  0  0  0  0  0  0  0  0  0
    1.9630   -1.4310    8.4480 O   0  0  0  0  0  0  0  0  0  0  0  0
    1.8360   -0.7200    7.7900 H   0  0  0  0  0  0  0  0  0  0  0  0
    2.7960   -4.4880    8.9620 C   0  0  0  0  0  2  0  0  0  0  0  0
    2.0340   -4.5110    7.7550 O   0  0  0  0  0  0  0  0  0  0  0  0
    1.5840   -3.6470    7.6960 H   0  0  0  0  0  0  0  0  0  0  0  0
  2  6  1  0  0  0  0
  2  3  1  0  0  0  0
  2  1  1  1  0  0  0
  3 21  1  1  0  0  0
  3  4  1  0  0  0  0
  4 23  1  6  0  0  0
  5  4  1  0  0  0  0
  6  7  1  6  0  0  0
  6  5  1  0  0  0  0
  8  7  1  0  0  0  0
  9  8  2  0  0  0  0
 10  9  1  0  0  0  0
 10 16  1  0  0  0  0
 11 10  2  0  0  0  0
 12 17  1  0  0  0  0
 12 11  1  0  0  0  0
 13 11  1  0  0  0  0
 13 14  2  0  0  0  0
 14 15  1  0  0  0  0
 16 15  2  0  0  0  0
 16  7  1  0  0  0  0
 18 12  1  0  0  0  0
 19  2  1  0  0  0  0
 20 19  1  0  0  0  0
 22 21  1  0  0  0  0
 24 23  1  0  0  0  0
 25 24  1  0  0  0  0
M  END
>  <minimizedAffinity>
-2.9558022

$$$$

 OpenBabel09122223153D

 25 27  0  0  1  0  0  0  0  0999 V2000
    1.3340   -1.0220    8.1680 C   0  0  0  0  0  1  0  0  0  0  0  0
    2.4960   -1.3260    7.2130 C   0  0  2  0  0  0  0  0  0  0  0  0
    2.0410   -1.6640    5.7940 C   0  0  1  0  0  3  0  0  0  0  0  0
    1.6400   -3.1230    5.9240 C   0  0  2  0  0  3  0  0  0  0  0  0
    2.5680   -3.7170    6.8650 O   0  0  0  0  0  0  0  0  0  0  0  0
    3.2010   -2.6470    7.6140 C   0  0  1  0  0  3  0  0  0  0  0  0
    4.6330   -2.6850    7.3770 N   0  0  0  0  0  0  0  0  0  0  0  0
    5.6400   -2.2740    8.2080 C   0  0  0  0  0  3  0  0  0  0  0  0
    6.8260   -2.3960    7.6450 N   0  0  0  0  0  0  0  0  0  0  0  0
    6.5690   -2.8960    6.3840 C   0  0  0  0  0  0  0  0  0  0  0  0
    7.4030   -3.2330    5.3040 C   0  0  0  0  0  0  0  0  0  0  0  0
    8.7700   -3.0980    5.3390 N   0  0  0  0  0  0  0  0  0  0  0  0
    6.8290   -3.7110    4.1750 N   0  0  0  0  0  0  0  0  0  0  0  0
    5.4870   -3.8460    4.1400 C   0  0  0  0  0  3  0  0  0  0  0  0
    4.5870   -3.5640    5.1100 N   0  0  0  0  0  0  0  0  0  0  0  0
    5.2110   -3.0810    6.2000 C   0  0  0  0  0  0  0  0  0  0  0  0
    9.2080   -2.7370    6.1740 H   0  0  0  0  0  0  0  0  0  0  0  0
    9.2990   -3.3560    4.5210 H   0  0  0  0  0  0  0  0  0  0  0  0
    3.3050   -0.1500    7.1700 O   0  0  0  0  0  0  0  0  0  0  0  0
    3.8140   -0.0960    8.0060 H   0  0  0  0  0  0  0  0  0  0  0  0
    0.9880   -0.8370    5.3240 O   0  0  0  0  0  0  0  0  0  0  0  0
    1.3110    0.0820    5.3950 H   0  0  0  0  0  0  0  0  0  0  0  0
    1.7040   -3.8820    4.6020 C   0  0  0  0  0  2  0  0  0  0  0  0
    2.2390   -3.0340    3.5850 O   0  0  0  0  0  0  0  0  0  0  0  0
    1.7690   -2.1810    3.6610 H   0  0  0  0  0  0  0  0  0  0  0  0
  2  6  1  0  0  0  0
  2  1  1  1  0  0  0
  3 21  1  1  0  0  0
  3  4  1  0  0  0  0
  3  2  1  0  0  0  0
  4 23  1  6  0  0  0
  4  5  1  0  0  0  0
  5  6  1  0  0  0  0
  6  7  1  6  0  0  0
  7  8  1  0  0  0  0
  9  8  2  0  0  0  0
 10  9  1  0  0  0  0
 11 12  1  0  0  0  0
 11 10  2  0  0  0  0
 12 17  1  0  0  0  0
 13 11  1  0  0  0  0
 14 13  2  0  0  0  0
 14 15  1  0  0  0  0
 15 16  2  0  0  0  0
 16 10  1  0  0  0  0
 16  7  1  0  0  0  0
 18 12  1  0  0  0  0
 19  2  1  0  0  0  0
 19 20  1  0  0  0  0
 21 22  1  0  0  0  0
 24 25  1  0  0  0  0
 24 23  1  0  0  0  0
M  END
>  <minimizedAffinity>
-2.86636353

$$$$

 OpenBabel09122223153D

 25 27  0  0  1  0  0  0  0  0999 V2000
    1.4270   -4.5030    7.5260 C   0  0  0  0  0  1  0  0  0  0  0  0
    2.7360   -3.7670    7.2130 C   0  0  2  0  0  0  0  0  0  0  0  0
    2.7690   -2.3350    7.7440 C   0  0  1  0  0  3  0  0  0  0  0  0
    1.9820   -1.5820    6.6850 C   0  0  2  0  0  3  0  0  0  0  0  0
    2.3030   -2.2070    5.4180 O   0  0  0  0  0  0  0  0  0  0  0  0
    2.8700   -3.5150    5.6890 C   0  0  1  0  0  3  0  0  0  0  0  0
    4.2240   -3.5640    5.1660 N   0  0  0  0  0  0  0  0  0  0  0  0
    4.6730   -4.1900    4.0350 C   0  0  0  0  0  3  0  0  0  0  0  0
    5.9800   -4.0820    3.8960 N   0  0  0  0  0  0  0  0  0  0  0  0
    6.3950   -3.3640    5.0000 C   0  0  0  0  0  0  0  0  0  0  0  0
    7.6580   -2.9300    5.4350 C   0  0  0  0  0  0  0  0  0  0  0  0
    8.8200   -3.1870    4.7470 N   0  0  0  0  0  0  0  0  0  0  0  0
    7.7340   -2.2270    6.5900 N   0  0  0  0  0  0  0  0  0  0  0  0
    6.5930   -1.9730    7.2660 C   0  0  0  0  0  3  0  0  0  0  0  0
    5.3290   -2.3280    6.9470 N   0  0  0  0  0  0  0  0  0  0  0  0
    5.3160   -3.0340    5.8010 C   0  0  0  0  0  0  0  0  0  0  0  0
    8.7770   -3.7150    3.8880 H   0  0  0  0  0  0  0  0  0  0  0  0
    9.6890   -2.8470    5.1280 H   0  0  0  0  0  0  0  0  0  0  0  0
    3.7820   -4.5140    7.8380 O   0  0  0  0  0  0  0  0  0  0  0  0
    3.9390   -5.3250    7.3080 H   0  0  0  0  0  0  0  0  0  0  0  0
    2.2210   -2.2000    9.0450 O   0  0  0  0  0  0  0  0  0  0  0  0
    2.7230   -2.8130    9.6170 H   0  0  0  0  0  0  0  0  0  0  0  0
    2.3300   -0.0990    6.6220 C   0  0  0  0  0  2  0  0  0  0  0  0
    3.3310    0.2030    7.5950 O   0  0  0  0  0  0  0  0  0  0  0  0
    3.0420   -0.2170    8.4270 H   0  0  0  0  0  0  0  0  0  0  0  0
  2  1  1  1  0  0  0
  2  3  1  0  0  0  0
  2 19  1  0  0  0  0
  3 21  1  1  0  0  0
  4 23  1  6  0  0  0
  4  3  1  0  0  0  0
  5  6  1  0  0  0  0
  5  4  1  0  0  0  0
  6  7  1  1  0  0  0
  6  2  1  0  0  0  0
  7 16  1  0  0  0  0
  8  7  1  0  0  0  0
  9  8  2  0  0  0  0
  9 10  1  0  0  0  0
 10 11  2  0  0  0  0
 10 16  1  0  0  0  0
 11 13  1  0  0  0  0
 12 18  1  0  0  0  0
 12 11  1  0  0  0  0
 13 14  2  0  0  0  0
 15 14  1  0  0  0  0
 16 15  2  0  0  0  0
 17 12  1  0  0  0  0
 20 19  1  0  0  0  0
 21 22  1  0  0  0  0
 23 24  1  0  0  0  0
 24 25  1  0  0  0  0
M  END
>  <minimizedAffinity>
-1.81103897

$$$$
