
 OpenBabel09132204463D

 25 27  0  0  1  0  0  0  0  0999 V2000
    2.3900   -4.5140    6.0170 C   0  0  0  0  0  1  0  0  0  0  0  0
    3.2790   -3.2740    5.8620 C   0  0  2  0  0  0  0  0  0  0  0  0
    3.8510   -3.1100    4.4550 C   0  0  1  0  0  3  0  0  0  0  0  0
    5.0290   -4.0700    4.4740 C   0  0  2  0  0  3  0  0  0  0  0  0
    5.5810   -4.0090    5.8110 O   0  0  0  0  0  0  0  0  0  0  0  0
    4.5810   -3.4280    6.6890 C   0  0  1  0  0  3  0  0  0  0  0  0
    5.1060   -2.2010    7.2600 N   0  0  0  0  0  0  0  0  0  0  0  0
    4.4100   -1.1550    7.8050 C   0  0  0  0  0  3  0  0  0  0  0  0
    5.2070   -0.1710    8.1720 N   0  0  0  0  0  0  0  0  0  0  0  0
    6.4750   -0.5950    7.8310 C   0  0  0  0  0  0  0  0  0  0  0  0
    7.7440   -0.0030    7.9510 C   0  0  0  0  0  0  0  0  0  0  0  0
    7.9420    1.2460    8.4910 N   0  0  0  0  0  0  0  0  0  0  0  0
    8.8200   -0.6950    7.5120 N   0  0  0  0  0  0  0  0  0  0  0  0
    8.6270   -1.9220    6.9830 C   0  0  0  0  0  3  0  0  0  0  0  0
    7.4650   -2.5950    6.8210 N   0  0  0  0  0  0  0  0  0  0  0  0
    6.4310   -1.8550    7.2610 C   0  0  0  0  0  0  0  0  0  0  0  0
    7.1460    1.7740    8.8170 H   0  0  0  0  0  0  0  0  0  0  0  0
    8.8820    1.6050    8.5370 H   0  0  0  0  0  0  0  0  0  0  0  0
    2.4560   -2.1440    6.1590 O   0  0  0  0  0  0  0  0  0  0  0  0
    2.3230   -2.1080    7.1300 H   0  0  0  0  0  0  0  0  0  0  0  0
    2.9170   -3.3970    3.4260 O   0  0  0  0  0  0  0  0  0  0  0  0
    2.1530   -2.8070    3.5810 H   0  0  0  0  0  0  0  0  0  0  0  0
    6.1110   -3.7090    3.4610 C   0  0  0  0  0  2  0  0  0  0  0  0
    7.3290   -3.4080    4.1440 O   0  0  0  0  0  0  0  0  0  0  0  0
    7.0940   -2.8060    4.8750 H   0  0  0  0  0  0  0  0  0  0  0  0
  2  1  1  1  0  0  0
  2 19  1  0  0  0  0
  2  6  1  0  0  0  0
  3 21  1  6  0  0  0
  3  4  1  0  0  0  0
  3  2  1  0  0  0  0
  4 23  1  6  0  0  0
  4  5  1  0  0  0  0
  5  6  1  0  0  0  0
  6  7  1  6  0  0  0
  7 16  1  0  0  0  0
  7  8  1  0  0  0  0
  8  9  2  0  0  0  0
 10 11  1  0  0  0  0
 10  9  1  0  0  0  0
 11 12  1  0  0  0  0
 12 18  1  0  0  0  0
 12 17  1  0  0  0  0
 13 11  2  0  0  0  0
 14 13  1  0  0  0  0
 15 14  2  0  0  0  0
 15 16  1  0  0  0  0
 16 10  2  0  0  0  0
 19 20  1  0  0  0  0
 21 22  1  0  0  0  0
 23 24  1  0  0  0  0
 24 25  1  0  0  0  0
M  END
>  <minimizedAffinity>
-4.30110312

$$$$
