
 OpenBabel09132204463D

 25 27  0  0  1  0  0  0  0  0999 V2000
    4.5070   -0.2340    9.0290 C   0  0  0  0  0  1  0  0  0  0  0  0
    4.3620   -1.2640    7.9010 C   0  0  2  0  0  0  0  0  0  0  0  0
    3.1200   -2.1440    8.0400 C   0  0  1  0  0  3  0  0  0  0  0  0
    3.5720   -3.1780    9.0560 C   0  0  2  0  0  3  0  0  0  0  0  0
    4.9730   -3.4290    8.7860 O   0  0  0  0  0  0  0  0  0  0  0  0
    5.4840   -2.3290    7.9870 C   0  0  1  0  0  3  0  0  0  0  0  0
    5.9520   -2.8460    6.7140 N   0  0  0  0  0  0  0  0  0  0  0  0
    7.2380   -2.9220    6.2510 C   0  0  0  0  0  3  0  0  0  0  0  0
    7.2930   -3.3900    5.0200 N   0  0  0  0  0  0  0  0  0  0  0  0
    5.9770   -3.6120    4.6660 C   0  0  0  0  0  0  0  0  0  0  0  0
    5.3730   -4.0930    3.4920 C   0  0  0  0  0  0  0  0  0  0  0  0
    6.0860   -4.4570    2.3740 N   0  0  0  0  0  0  0  0  0  0  0  0
    4.0240   -4.1970    3.4590 N   0  0  0  0  0  0  0  0  0  0  0  0
    3.3230   -3.8400    4.5560 C   0  0  0  0  0  3  0  0  0  0  0  0
    3.7870   -3.3750    5.7370 N   0  0  0  0  0  0  0  0  0  0  0  0
    5.1290   -3.2780    5.7070 C   0  0  0  0  0  0  0  0  0  0  0  0
    7.0930   -4.3780    2.3850 H   0  0  0  0  0  0  0  0  0  0  0  0
    5.5800   -4.7870    1.5680 H   0  0  0  0  0  0  0  0  0  0  0  0
    4.2680   -0.5230    6.6830 O   0  0  0  0  0  0  0  0  0  0  0  0
    5.1610   -0.1850    6.4590 H   0  0  0  0  0  0  0  0  0  0  0  0
    1.9630   -1.4310    8.4480 O   0  0  0  0  0  0  0  0  0  0  0  0
    1.8360   -0.7200    7.7900 H   0  0  0  0  0  0  0  0  0  0  0  0
    2.7960   -4.4880    8.9620 C   0  0  0  0  0  2  0  0  0  0  0  0
    2.0340   -4.5110    7.7550 O   0  0  0  0  0  0  0  0  0  0  0  0
    1.5840   -3.6470    7.6960 H   0  0  0  0  0  0  0  0  0  0  0  0
  2  6  1  0  0  0  0
  2  3  1  0  0  0  0
  2  1  1  1  0  0  0
  3 21  1  1  0  0  0
  3  4  1  0  0  0  0
  4 23  1  6  0  0  0
  5  4  1  0  0  0  0
  6  7  1  6  0  0  0
  6  5  1  0  0  0  0
  8  7  1  0  0  0  0
  9  8  2  0  0  0  0
 10  9  1  0  0  0  0
 10 16  1  0  0  0  0
 11 10  2  0  0  0  0
 12 17  1  0  0  0  0
 12 11  1  0  0  0  0
 13 11  1  0  0  0  0
 13 14  2  0  0  0  0
 14 15  1  0  0  0  0
 16 15  2  0  0  0  0
 16  7  1  0  0  0  0
 18 12  1  0  0  0  0
 19  2  1  0  0  0  0
 20 19  1  0  0  0  0
 22 21  1  0  0  0  0
 24 23  1  0  0  0  0
 25 24  1  0  0  0  0
M  END
>  <minimizedAffinity>
-2.9558022

$$$$
