
 OpenBabel09132204463D

 25 27  0  0  1  0  0  0  0  0999 V2000
    8.7100   -1.2010    8.8580 C   0  0  0  0  0  1  0  0  0  0  0  0
    7.6570   -1.2590    7.7440 C   0  0  2  0  0  0  0  0  0  0  0  0
    6.4350   -0.3850    8.0180 C   0  0  1  0  0  3  0  0  0  0  0  0
    5.6230   -1.2560    8.9630 C   0  0  2  0  0  3  0  0  0  0  0  0
    5.8200   -2.6230    8.5270 O   0  0  0  0  0  0  0  0  0  0  0  0
    7.0030   -2.6630    7.6850 C   0  0  1  0  0  3  0  0  0  0  0  0
    6.6260   -3.1200    6.3600 N   0  0  0  0  0  0  0  0  0  0  0  0
    7.4240   -3.2740    5.2580 C   0  0  0  0  0  3  0  0  0  0  0  0
    6.7350   -3.6490    4.1980 N   0  0  0  0  0  0  0  0  0  0  0  0
    5.4280   -3.7250    4.6340 C   0  0  0  0  0  0  0  0  0  0  0  0
    4.2250   -4.0580    3.9880 C   0  0  0  0  0  0  0  0  0  0  0  0
    4.1550   -4.3970    2.6570 N   0  0  0  0  0  0  0  0  0  0  0  0
    3.0810   -4.0390    4.7110 N   0  0  0  0  0  0  0  0  0  0  0  0
    3.1490   -3.7060    6.0170 C   0  0  0  0  0  3  0  0  0  0  0  0
    4.2380   -3.3770    6.7470 N   0  0  0  0  0  0  0  0  0  0  0  0
    5.3410   -3.3980    5.9750 C   0  0  0  0  0  0  0  0  0  0  0  0
    5.0010   -4.4090    2.1070 H   0  0  0  0  0  0  0  0  0  0  0  0
    3.2540   -4.6170    2.2650 H   0  0  0  0  0  0  0  0  0  0  0  0
    8.2980   -0.7960    6.5540 O   0  0  0  0  0  0  0  0  0  0  0  0
    8.8940   -1.5040    6.2300 H   0  0  0  0  0  0  0  0  0  0  0  0
    6.7560    0.8830    8.5680 O   0  0  0  0  0  0  0  0  0  0  0  0
    7.3730    1.3040    7.9380 H   0  0  0  0  0  0  0  0  0  0  0  0
    4.1330   -0.9280    8.9470 C   0  0  0  0  0  2  0  0  0  0  0  0
    3.7960   -0.2790    7.7210 O   0  0  0  0  0  0  0  0  0  0  0  0
    4.4700    0.4110    7.5790 H   0  0  0  0  0  0  0  0  0  0  0  0
  2  3  1  0  0  0  0
  2  1  1  1  0  0  0
  3 21  1  1  0  0  0
  3  4  1  0  0  0  0
  4 23  1  6  0  0  0
  5  4  1  0  0  0  0
  6  7  1  6  0  0  0
  6  2  1  0  0  0  0
  6  5  1  0  0  0  0
  8  7  1  0  0  0  0
  9 10  1  0  0  0  0
  9  8  2  0  0  0  0
 10 16  1  0  0  0  0
 11 10  2  0  0  0  0
 11 13  1  0  0  0  0
 12 11  1  0  0  0  0
 13 14  2  0  0  0  0
 14 15  1  0  0  0  0
 16  7  1  0  0  0  0
 16 15  2  0  0  0  0
 17 12  1  0  0  0  0
 18 12  1  0  0  0  0
 19  2  1  0  0  0  0
 20 19  1  0  0  0  0
 22 21  1  0  0  0  0
 24 23  1  0  0  0  0
 25 24  1  0  0  0  0
M  END
>  <minimizedAffinity>
-4.53524208

$$$$
