
 OpenBabel09132204463D

 25 27  0  0  1  0  0  0  0  0999 V2000
    3.0110   -1.6560    8.9700 C   0  0  0  0  0  1  0  0  0  0  0  0
    3.7180   -1.6670    7.6090 C   0  0  2  0  0  0  0  0  0  0  0  0
    2.7540   -1.6620    6.4240 C   0  0  1  0  0  3  0  0  0  0  0  0
    2.3500   -3.1240    6.3330 C   0  0  2  0  0  3  0  0  0  0  0  0
    3.5250   -3.8930    6.6870 O   0  0  0  0  0  0  0  0  0  0  0  0
    4.4480   -3.0150    7.3840 C   0  0  1  0  0  3  0  0  0  0  0  0
    5.6870   -2.9350    6.6310 N   0  0  0  0  0  0  0  0  0  0  0  0
    6.8530   -2.3110    6.9820 C   0  0  0  0  0  3  0  0  0  0  0  0
    7.7600   -2.3840    6.0280 N   0  0  0  0  0  0  0  0  0  0  0  0
    7.1420   -3.0750    5.0050 C   0  0  0  0  0  0  0  0  0  0  0  0
    7.5690   -3.4670    3.7250 C   0  0  0  0  0  0  0  0  0  0  0  0
    8.8200   -3.1850    3.2300 N   0  0  0  0  0  0  0  0  0  0  0  0
    6.7040   -4.1510    2.9400 N   0  0  0  0  0  0  0  0  0  0  0  0
    5.4750   -4.4290    3.4250 C   0  0  0  0  0  3  0  0  0  0  0  0
    4.9550   -4.1140    4.6330 N   0  0  0  0  0  0  0  0  0  0  0  0
    5.8520   -3.4240    5.3620 C   0  0  0  0  0  0  0  0  0  0  0  0
    9.4720   -2.6700    3.8040 H   0  0  0  0  0  0  0  0  0  0  0  0
    9.0500   -3.4950    2.3000 H   0  0  0  0  0  0  0  0  0  0  0  0
    4.5180   -0.4840    7.5570 O   0  0  0  0  0  0  0  0  0  0  0  0
    5.3020   -0.6170    8.1310 H   0  0  0  0  0  0  0  0  0  0  0  0
    1.6480   -0.7890    6.5970 O   0  0  0  0  0  0  0  0  0  0  0  0
    2.0250    0.0970    6.7650 H   0  0  0  0  0  0  0  0  0  0  0  0
    1.8790   -3.5290    4.9400 C   0  0  0  0  0  2  0  0  0  0  0  0
    2.2800   -2.5420    3.9900 O   0  0  0  0  0  0  0  0  0  0  0  0
    2.0460   -1.6760    4.3750 H   0  0  0  0  0  0  0  0  0  0  0  0
  2  1  1  1  0  0  0
  3 21  1  1  0  0  0
  3  2  1  0  0  0  0
  4 23  1  6  0  0  0
  4  3  1  0  0  0  0
  4  5  1  0  0  0  0
  5  6  1  0  0  0  0
  6  7  1  6  0  0  0
  6  2  1  0  0  0  0
  7  8  1  0  0  0  0
  9  8  2  0  0  0  0
 10 16  1  0  0  0  0
 10  9  1  0  0  0  0
 11 10  2  0  0  0  0
 12 11  1  0  0  0  0
 12 17  1  0  0  0  0
 13 14  2  0  0  0  0
 13 11  1  0  0  0  0
 14 15  1  0  0  0  0
 15 16  2  0  0  0  0
 16  7  1  0  0  0  0
 18 12  1  0  0  0  0
 19  2  1  0  0  0  0
 19 20  1  0  0  0  0
 21 22  1  0  0  0  0
 24 25  1  0  0  0  0
 24 23  1  0  0  0  0
M  END
>  <minimizedAffinity>
-4.569561

$$$$
