
 OpenBabel09132204463D

 24 27  0  0  1  0  0  0  0  0999 V2000
   -2.1600   -7.4590    5.7200 C   0  0  0  0  0  0  0  0  0  0  0  0
   -3.1170   -8.3780    5.5250 N   0  0  0  0  0  0  0  0  0  0  0  0
   -2.6890   -9.4910    4.9300 C   0  0  0  0  0  2  0  0  0  0  0  0
   -1.4340   -9.7320    4.5400 N   0  0  0  0  0  0  0  0  0  0  0  0
   -0.5240   -8.7840    4.7610 C   0  0  0  0  0  0  0  0  0  0  0  0
    0.7280   -9.0370    4.3770 N   0  0  0  0  0  0  0  0  0  0  0  0
    1.6950   -8.0970    4.5890 C   0  0  0  0  0  0  0  0  0  0  0  0
    1.3860   -6.8590    5.1690 C   0  0  0  0  0  0  0  0  0  0  0  0
    0.1190   -6.5970    5.5810 N   0  0  0  0  0  0  0  0  0  0  0  0
   -0.8220   -7.5630    5.3710 C   0  0  1  0  0  3  0  0  0  0  0  0
    3.0430   -8.5340    4.1810 C   0  0  0  0  0  0  0  0  0  0  0  0
    3.8520   -9.3280    5.0120 C   0  0  0  0  0  3  0  0  0  0  0  0
    5.1290   -9.7290    4.6090 C   0  0  0  0  0  3  0  0  0  0  0  0
    5.6160   -9.3540    3.3600 C   0  0  0  0  0  3  0  0  0  0  0  0
    4.8260   -8.5840    2.5110 C   0  0  0  0  0  3  0  0  0  0  0  0
    3.5510   -8.1830    2.9170 C   0  0  0  0  0  3  0  0  0  0  0  0
    2.3270   -5.7430    5.3700 C   0  0  0  0  0  0  0  0  0  0  0  0
    2.1910   -4.5560    4.6280 C   0  0  0  0  0  3  0  0  0  0  0  0
    3.0710   -3.4850    4.8030 C   0  0  0  0  0  3  0  0  0  0  0  0
    4.1140   -3.5850    5.7180 C   0  0  0  0  0  3  0  0  0  0  0  0
    4.2820   -4.7560    6.4520 C   0  0  0  0  0  3  0  0  0  0  0  0
    3.4010   -5.8280    6.2740 C   0  0  0  0  0  3  0  0  0  0  0  0
   -2.6360   -6.3360    6.3320 O   0  0  0  0  0  0  0  0  0  0  0  0
   -3.5770   -6.5630    6.4360 H   0  0  0  0  0  0  0  0  0  0  0  0
  1 23  1  0  0  0  0
  2  1  2  0  0  0  0
  3  2  1  0  0  0  0
  4  5  2  0  0  0  0
  4  3  1  0  0  0  0
  6  7  2  0  0  0  0
  6  5  1  0  0  0  0
  7  8  1  0  0  0  0
  8 17  1  0  0  0  0
  8  9  2  0  0  0  0
 10  5  1  6  0  0  0
 10  9  1  0  0  0  0
 10  1  1  0  0  0  0
 11  7  1  0  0  0  0
 11 12  1  0  0  0  0
 13 12  2  0  0  0  0
 14 13  1  0  0  0  0
 15 16  1  0  0  0  0
 15 14  2  0  0  0  0
 16 11  2  0  0  0  0
 17 22  1  0  0  0  0
 18 19  1  0  0  0  0
 18 17  2  0  0  0  0
 19 20  2  0  0  0  0
 20 21  1  0  0  0  0
 22 21  2  0  0  0  0
 23 24  1  0  0  0  0
M  END
>  <minimizedAffinity>
-5.09401321

$$$$
