
 OpenBabel09132204463D

 24 27  0  0  1  0  0  0  0  0999 V2000
    4.8410   -8.1580    0.0050 C   0  0  0  0  0  0  0  0  0  0  0  0
    5.4550   -7.6460   -1.0730 N   0  0  0  0  0  0  0  0  0  0  0  0
    5.7220   -6.3440   -0.9780 C   0  0  0  0  0  2  0  0  0  0  0  0
    5.4330   -5.5640    0.0680 N   0  0  0  0  0  0  0  0  0  0  0  0
    4.8260   -6.1270    1.1120 C   0  0  0  0  0  0  0  0  0  0  0  0
    4.5500   -5.3430    2.1540 N   0  0  0  0  0  0  0  0  0  0  0  0
    3.9330   -5.8790    3.2490 C   0  0  0  0  0  0  0  0  0  0  0  0
    3.5540   -7.2280    3.2770 C   0  0  0  0  0  0  0  0  0  0  0  0
    3.8450   -8.0400    2.2290 N   0  0  0  0  0  0  0  0  0  0  0  0
    4.4770   -7.4800    1.1570 C   0  0  1  0  0  3  0  0  0  0  0  0
    3.7510   -4.9190    4.3530 C   0  0  0  0  0  0  0  0  0  0  0  0
    4.6780   -4.8100    5.4050 C   0  0  0  0  0  3  0  0  0  0  0  0
    4.4870   -3.8960    6.4450 C   0  0  0  0  0  3  0  0  0  0  0  0
    3.3700   -3.0640    6.4460 C   0  0  0  0  0  3  0  0  0  0  0  0
    2.4480   -3.1400    5.4060 C   0  0  0  0  0  3  0  0  0  0  0  0
    2.6410   -4.0560    4.3680 C   0  0  0  0  0  3  0  0  0  0  0  0
    2.8130   -7.8910    4.3650 C   0  0  0  0  0  0  0  0  0  0  0  0
    3.4200   -8.9130    5.1180 C   0  0  0  0  0  3  0  0  0  0  0  0
    2.7380   -9.5550    6.1540 C   0  0  0  0  0  3  0  0  0  0  0  0
    1.4270   -9.1930    6.4520 C   0  0  0  0  0  3  0  0  0  0  0  0
    0.7970   -8.1980    5.7100 C   0  0  0  0  0  3  0  0  0  0  0  0
    1.4820   -7.5580    4.6720 C   0  0  0  0  0  3  0  0  0  0  0  0
    4.5860   -9.4930   -0.1300 O   0  0  0  0  0  0  0  0  0  0  0  0
    4.9430   -9.6640   -1.0190 H   0  0  0  0  0  0  0  0  0  0  0  0
  2  3  1  0  0  0  0
  2  1  2  0  0  0  0
  3  4  1  0  0  0  0
  4  5  2  0  0  0  0
  5  6  1  0  0  0  0
  6  7  2  0  0  0  0
  7  8  1  0  0  0  0
  7 11  1  0  0  0  0
  8 17  1  0  0  0  0
  9  8  2  0  0  0  0
 10  5  1  6  0  0  0
 10  1  1  0  0  0  0
 10  9  1  0  0  0  0
 11 16  2  0  0  0  0
 11 12  1  0  0  0  0
 12 13  2  0  0  0  0
 13 14  1  0  0  0  0
 15 14  2  0  0  0  0
 16 15  1  0  0  0  0
 17 22  2  0  0  0  0
 17 18  1  0  0  0  0
 18 19  2  0  0  0  0
 19 20  1  0  0  0  0
 21 20  2  0  0  0  0
 22 21  1  0  0  0  0
 23  1  1  0  0  0  0
 24 23  1  0  0  0  0
M  END
>  <minimizedAffinity>
-6.25573587

$$$$
