
 OpenBabel09132204463D

 24 27  0  0  1  0  0  0  0  0999 V2000
    5.3660   -6.1650   -0.1320 C   0  0  0  0  0  0  0  0  0  0  0  0
    5.6600   -6.9700   -1.1640 N   0  0  0  0  0  0  0  0  0  0  0  0
    5.3240   -8.2450   -0.9710 C   0  0  0  0  0  2  0  0  0  0  0  0
    4.7440   -8.7400    0.1260 N   0  0  0  0  0  0  0  0  0  0  0  0
    4.4720   -7.8930    1.1190 C   0  0  0  0  0  0  0  0  0  0  0  0
    3.8830   -8.3940    2.2050 N   0  0  0  0  0  0  0  0  0  0  0  0
    3.5810   -7.5620    3.2450 C   0  0  0  0  0  0  0  0  0  0  0  0
    3.9120   -6.2010    3.2020 C   0  0  0  0  0  0  0  0  0  0  0  0
    4.4940   -5.6760    2.0940 N   0  0  0  0  0  0  0  0  0  0  0  0
    4.7690   -6.5290    1.0650 C   0  0  1  0  0  3  0  0  0  0  0  0
    2.8720   -8.2330    4.3510 C   0  0  0  0  0  0  0  0  0  0  0  0
    3.5600   -8.8460    5.4130 C   0  0  0  0  0  3  0  0  0  0  0  0
    2.8710   -9.4790    6.4510 C   0  0  0  0  0  3  0  0  0  0  0  0
    1.4790   -9.5020    6.4520 C   0  0  0  0  0  3  0  0  0  0  0  0
    0.7750   -8.8850    5.4220 C   0  0  0  0  0  3  0  0  0  0  0  0
    1.4660   -8.2530    4.3840 C   0  0  0  0  0  3  0  0  0  0  0  0
    3.7080   -5.2310    4.2930 C   0  0  0  0  0  0  0  0  0  0  0  0
    2.6300   -4.3280    4.2490 C   0  0  0  0  0  3  0  0  0  0  0  0
    2.4180   -3.4010    5.2720 C   0  0  0  0  0  3  0  0  0  0  0  0
    3.2880   -3.3510    6.3570 C   0  0  0  0  0  3  0  0  0  0  0  0
    4.3740   -4.2200    6.4150 C   0  0  0  0  0  3  0  0  0  0  0  0
    4.5860   -5.1470    5.3890 C   0  0  0  0  0  3  0  0  0  0  0  0
    5.7220   -4.8680   -0.3680 O   0  0  0  0  0  0  0  0  0  0  0  0
    6.1070   -4.9380   -1.2590 H   0  0  0  0  0  0  0  0  0  0  0  0
  2  3  1  0  0  0  0
  2  1  2  0  0  0  0
  3  4  1  0  0  0  0
  4  5  2  0  0  0  0
  5  6  1  0  0  0  0
  6  7  2  0  0  0  0
  7 11  1  0  0  0  0
  8  7  1  0  0  0  0
  8 17  1  0  0  0  0
  9  8  2  0  0  0  0
 10  1  1  1  0  0  0
 10  5  1  0  0  0  0
 10  9  1  0  0  0  0
 11 16  2  0  0  0  0
 11 12  1  0  0  0  0
 12 13  2  0  0  0  0
 13 14  1  0  0  0  0
 15 14  2  0  0  0  0
 16 15  1  0  0  0  0
 17 22  1  0  0  0  0
 18 17  2  0  0  0  0
 18 19  1  0  0  0  0
 19 20  2  0  0  0  0
 20 21  1  0  0  0  0
 22 21  2  0  0  0  0
 23  1  1  0  0  0  0
 24 23  1  0  0  0  0
M  END
>  <minimizedAffinity>
-4.39679289

$$$$
