
 OpenBabel09122222393D

 28 32  0  0  0  0  0  0  0  0999 V2000
    6.0710   -6.2810   -0.0850 C   0  0  0  0  0  0  0  0  0  0  0  0
    6.9130   -5.8140   -1.1060 C   0  0  0  0  0  3  0  0  0  0  0  0
    7.9250   -4.8740   -0.8690 C   0  0  0  0  0  3  0  0  0  0  0  0
    8.0790   -4.4040    0.4420 C   0  0  0  0  0  0  0  0  0  0  0  0
    7.2450   -4.8250    1.4720 C   0  0  0  0  0  0  0  0  0  0  0  0
    6.2420   -5.7730    1.2170 C   0  0  0  0  0  3  0  0  0  0  0  0
    7.5630   -4.1910    2.6460 N   0  0  0  0  0  0  0  0  0  0  0  0
    8.5430   -3.3470    2.3630 C   0  0  0  0  0  0  0  0  0  0  0  0
    8.9640   -3.5320    1.0510 N   0  0  0  0  0  0  0  0  0  0  0  0
    9.0810   -2.3850    3.3380 C   0  0  0  0  0  0  0  0  0  0  0  0
    9.2820   -1.0610    2.9750 C   0  0  0  0  0  3  0  0  0  0  0  0
    9.8270   -0.1860    3.9080 C   0  0  0  0  0  3  0  0  0  0  0  0
   10.1710   -0.6570    5.1780 C   0  0  0  0  0  0  0  0  0  0  0  0
   10.7280    0.1860    6.1560 C   0  0  0  0  0  3  0  0  0  0  0  0
   11.0640   -0.3170    7.4110 C   0  0  0  0  0  3  0  0  0  0  0  0
   10.8470   -1.6620    7.6920 C   0  0  0  0  0  3  0  0  0  0  0  0
   10.2940   -2.4970    6.7170 C   0  0  0  0  0  3  0  0  0  0  0  0
    9.9480   -2.0210    5.4590 C   0  0  0  0  0  0  0  0  0  0  0  0
    9.4160   -2.8680    4.5610 N   0  0  0  0  0  0  0  0  0  0  0  0
   10.1600   -2.9580    0.4390 C   0  0  0  0  0  3  0  0  0  0  0  0
   11.1050   -4.0030   -0.1840 C   0  0  0  0  0  2  0  0  0  0  0  0
   12.3630   -3.3410   -0.7460 C   0  0  0  0  0  2  0  0  0  0  0  0
   12.0190   -2.2300   -1.7340 C   0  0  0  0  0  2  0  0  0  0  0  0
   11.0880   -1.1910   -1.1150 C   0  0  0  0  0  2  0  0  0  0  0  0
    9.8230   -1.8290   -0.5470 C   0  0  0  0  0  2  0  0  0  0  0  0
    3.8240   -7.0570    0.0540 O   0  0  0  0  0  1  0  0  0  0  0  0
    4.9950   -7.3060   -0.3790 C   0  0  0  0  0  0  0  0  0  0  0  0
    5.3360   -8.3380   -1.0400 O   0  0  0  0  0  0  0  0  0  0  0  0
  1  6  1  0  0  0  0
  2  3  1  0  0  0  0
  2  1  2  0  0  0  0
  3  4  2  0  0  0  0
  4  9  1  0  0  0  0
  4  5  1  0  0  0  0
  5  7  1  0  0  0  0
  6  5  2  0  0  0  0
  8  7  2  0  0  0  0
  8 10  1  0  0  0  0
  9  8  1  0  0  0  0
 10 19  1  0  0  0  0
 11 10  2  0  0  0  0
 11 12  1  0  0  0  0
 12 13  2  0  0  0  0
 13 18  1  0  0  0  0
 13 14  1  0  0  0  0
 14 15  2  0  0  0  0
 15 16  1  0  0  0  0
 17 16  2  0  0  0  0
 18 17  1  0  0  0  0
 19 18  2  0  0  0  0
 20  9  1  0  0  0  0
 21 20  1  0  0  0  0
 22 21  1  0  0  0  0
 23 24  1  0  0  0  0
 23 22  1  0  0  0  0
 24 25  1  0  0  0  0
 25 20  1  0  0  0  0
 27  1  1  0  0  0  0
 27 26  1  0  0  0  0
 28 27  2  0  0  0  0
M  END
>  <minimizedAffinity>
-8.2709341

$$$$
