
 OpenBabel09122222393D

 28 32  0  0  0  0  0  0  0  0999 V2000
    5.8640   -5.9160    2.0750 C   0  0  0  0  0  0  0  0  0  0  0  0
    5.7270   -4.5660    2.4320 C   0  0  0  0  0  3  0  0  0  0  0  0
    4.8070   -4.1380    3.3990 C   0  0  0  0  0  3  0  0  0  0  0  0
    4.0130   -5.1150    4.0140 C   0  0  0  0  0  0  0  0  0  0  0  0
    4.1040   -6.4580    3.6660 C   0  0  0  0  0  0  0  0  0  0  0  0
    5.0360   -6.8680    2.7000 C   0  0  0  0  0  3  0  0  0  0  0  0
    3.1970   -7.2070    4.3700 N   0  0  0  0  0  0  0  0  0  0  0  0
    2.5060   -6.3570    5.1140 C   0  0  0  0  0  0  0  0  0  0  0  0
    3.0540   -5.0830    5.0110 N   0  0  0  0  0  0  0  0  0  0  0  0
    1.3460   -6.7600    5.9250 C   0  0  0  0  0  0  0  0  0  0  0  0
    0.1310   -7.0400    5.3160 C   0  0  0  0  0  3  0  0  0  0  0  0
   -0.9550   -7.3800    6.1130 C   0  0  0  0  0  3  0  0  0  0  0  0
   -0.8060   -7.4210    7.5030 C   0  0  0  0  0  0  0  0  0  0  0  0
   -1.8750   -7.7570    8.3530 C   0  0  0  0  0  3  0  0  0  0  0  0
   -1.6940   -7.7830    9.7340 C   0  0  0  0  0  3  0  0  0  0  0  0
   -0.4480   -7.4730   10.2700 C   0  0  0  0  0  3  0  0  0  0  0  0
    0.6110   -7.1380    9.4210 C   0  0  0  0  0  3  0  0  0  0  0  0
    0.4590   -7.1070    8.0400 C   0  0  0  0  0  0  0  0  0  0  0  0
    1.5130   -6.7820    7.2720 N   0  0  0  0  0  0  0  0  0  0  0  0
    2.7200   -3.9310    5.8440 C   0  0  0  0  0  3  0  0  0  0  0  0
    3.8210   -3.5530    6.8550 C   0  0  0  0  0  2  0  0  0  0  0  0
    3.3800   -2.3840    7.7360 C   0  0  0  0  0  2  0  0  0  0  0  0
    2.9440   -1.1840    6.9000 C   0  0  0  0  0  2  0  0  0  0  0  0
    1.8490   -1.5570    5.9040 C   0  0  0  0  0  2  0  0  0  0  0  0
    2.2670   -2.7230    5.0110 C   0  0  0  0  0  2  0  0  0  0  0  0
    6.7400   -5.8570   -0.1390 O   0  0  0  0  0  0  0  0  0  0  0  0
    6.8790   -6.3390    1.0310 C   0  0  0  0  0  0  0  0  0  0  0  0
    7.7950   -7.1400    1.3990 O   0  0  0  0  0  1  0  0  0  0  0  0
  1  2  2  0  0  0  0
  1  6  1  0  0  0  0
  2  3  1  0  0  0  0
  3  4  2  0  0  0  0
  4  9  1  0  0  0  0
  5  4  1  0  0  0  0
  5  7  1  0  0  0  0
  6  5  2  0  0  0  0
  7  8  2  0  0  0  0
  8 10  1  0  0  0  0
  9  8  1  0  0  0  0
  9 20  1  0  0  0  0
 10 19  1  0  0  0  0
 11 10  2  0  0  0  0
 11 12  1  0  0  0  0
 12 13  2  0  0  0  0
 13 18  1  0  0  0  0
 13 14  1  0  0  0  0
 14 15  2  0  0  0  0
 15 16  1  0  0  0  0
 17 16  2  0  0  0  0
 18 17  1  0  0  0  0
 19 18  2  0  0  0  0
 20 21  1  0  0  0  0
 21 22  1  0  0  0  0
 23 22  1  0  0  0  0
 24 23  1  0  0  0  0
 25 20  1  0  0  0  0
 25 24  1  0  0  0  0
 26 27  2  0  0  0  0
 27 28  1  0  0  0  0
 27  1  1  0  0  0  0
M  END
>  <minimizedAffinity>
-7.73642063

$$$$
