
 OpenBabel09122222393D

 28 32  0  0  0  0  0  0  0  0999 V2000
    9.5900   -3.7690    0.3950 C   0  0  0  0  0  0  0  0  0  0  0  0
    9.0190   -4.9360   -0.1360 C   0  0  0  0  0  3  0  0  0  0  0  0
    7.8510   -5.5030    0.3920 C   0  0  0  0  0  3  0  0  0  0  0  0
    7.2560   -4.8610    1.4850 C   0  0  0  0  0  0  0  0  0  0  0  0
    7.8100   -3.7180    2.0530 C   0  0  0  0  0  0  0  0  0  0  0  0
    8.9760   -3.1600    1.5060 C   0  0  0  0  0  3  0  0  0  0  0  0
    7.0740   -3.3060    3.1330 N   0  0  0  0  0  0  0  0  0  0  0  0
    6.1010   -4.1920    3.2860 C   0  0  0  0  0  0  0  0  0  0  0  0
    6.1110   -5.0920    2.2270 N   0  0  0  0  0  0  0  0  0  0  0  0
    5.1650   -4.1690    4.4210 C   0  0  0  0  0  0  0  0  0  0  0  0
    3.8440   -3.7900    4.2280 C   0  0  0  0  0  3  0  0  0  0  0  0
    2.9940   -3.7420    5.3270 C   0  0  0  0  0  3  0  0  0  0  0  0
    3.4870   -4.0610    6.5960 C   0  0  0  0  0  0  0  0  0  0  0  0
    2.6700   -4.0250    7.7400 C   0  0  0  0  0  3  0  0  0  0  0  0
    3.1940   -4.3430    8.9900 C   0  0  0  0  0  3  0  0  0  0  0  0
    4.5350   -4.6970    9.1030 C   0  0  0  0  0  3  0  0  0  0  0  0
    5.3440   -4.7310    7.9640 C   0  0  0  0  0  3  0  0  0  0  0  0
    4.8470   -4.4200    6.7050 C   0  0  0  0  0  0  0  0  0  0  0  0
    5.6700   -4.4720    5.6430 N   0  0  0  0  0  0  0  0  0  0  0  0
    5.0710   -6.0700    1.9160 C   0  0  0  0  0  3  0  0  0  0  0  0
    4.9470   -6.3920    0.4140 C   0  0  0  0  0  2  0  0  0  0  0  0
    3.7990   -7.3690    0.1540 C   0  0  0  0  0  2  0  0  0  0  0  0
    3.9390   -8.6350    0.9950 C   0  0  0  0  0  2  0  0  0  0  0  0
    4.0550   -8.3160    2.4820 C   0  0  0  0  0  2  0  0  0  0  0  0
    5.1960   -7.3420    2.7670 C   0  0  0  0  0  2  0  0  0  0  0  0
   11.9440   -3.4030    0.3990 O   0  0  0  0  0  1  0  0  0  0  0  0
   10.8480   -3.1800   -0.2120 C   0  0  0  0  0  0  0  0  0  0  0  0
   10.7210   -2.5100   -1.2850 O   0  0  0  0  0  0  0  0  0  0  0  0
  1  6  1  0  0  0  0
  2  3  1  0  0  0  0
  2  1  2  0  0  0  0
  3  4  2  0  0  0  0
  4  5  1  0  0  0  0
  4  9  1  0  0  0  0
  5  7  1  0  0  0  0
  6  5  2  0  0  0  0
  7  8  2  0  0  0  0
  8 10  1  0  0  0  0
  9  8  1  0  0  0  0
 10 19  1  0  0  0  0
 11 10  2  0  0  0  0
 11 12  1  0  0  0  0
 12 13  2  0  0  0  0
 13 18  1  0  0  0  0
 13 14  1  0  0  0  0
 14 15  2  0  0  0  0
 15 16  1  0  0  0  0
 17 16  2  0  0  0  0
 18 17  1  0  0  0  0
 19 18  2  0  0  0  0
 20  9  1  0  0  0  0
 20 25  1  0  0  0  0
 21 20  1  0  0  0  0
 22 21  1  0  0  0  0
 22 23  1  0  0  0  0
 23 24  1  0  0  0  0
 24 25  1  0  0  0  0
 27  1  1  0  0  0  0
 27 26  1  0  0  0  0
 28 27  2  0  0  0  0
M  END
>  <minimizedAffinity>
-7.66621447

$$$$
