
 OpenBabel09122222393D

 28 32  0  0  0  0  0  0  0  0999 V2000
    6.4100   -6.0530    0.1490 C   0  0  0  0  0  0  0  0  0  0  0  0
    7.2210   -5.6190   -0.9110 C   0  0  0  0  0  3  0  0  0  0  0  0
    8.2360   -4.6680   -0.7350 C   0  0  0  0  0  3  0  0  0  0  0  0
    8.4250   -4.1530    0.5540 C   0  0  0  0  0  0  0  0  0  0  0  0
    7.6230   -4.5420    1.6220 C   0  0  0  0  0  0  0  0  0  0  0  0
    6.6160   -5.5000    1.4280 C   0  0  0  0  0  3  0  0  0  0  0  0
    7.9720   -3.8670    2.7630 N   0  0  0  0  0  0  0  0  0  0  0  0
    8.9400   -3.0300    2.4240 C   0  0  0  0  0  0  0  0  0  0  0  0
    9.3240   -3.2590    1.1080 N   0  0  0  0  0  0  0  0  0  0  0  0
    9.5020   -2.0340    3.3500 C   0  0  0  0  0  0  0  0  0  0  0  0
   10.0010   -2.4320    4.5830 C   0  0  0  0  0  3  0  0  0  0  0  0
   10.4900   -1.4620    5.4510 C   0  0  0  0  0  3  0  0  0  0  0  0
   10.4570   -0.1160    5.0730 C   0  0  0  0  0  0  0  0  0  0  0  0
   10.9360    0.9020    5.9160 C   0  0  0  0  0  3  0  0  0  0  0  0
   10.8840    2.2340    5.5110 C   0  0  0  0  0  3  0  0  0  0  0  0
   10.3520    2.5520    4.2660 C   0  0  0  0  0  3  0  0  0  0  0  0
    9.8760    1.5370    3.4310 C   0  0  0  0  0  3  0  0  0  0  0  0
    9.9180    0.2010    3.8090 C   0  0  0  0  0  0  0  0  0  0  0  0
    9.4490   -0.7340    2.9660 N   0  0  0  0  0  0  0  0  0  0  0  0
   10.4990   -2.7020    0.4420 C   0  0  0  0  0  3  0  0  0  0  0  0
   11.5120   -3.7650   -0.0280 C   0  0  0  0  0  2  0  0  0  0  0  0
   12.7440   -3.1110   -0.6540 C   0  0  0  0  0  2  0  0  0  0  0  0
   12.3610   -2.1560   -1.7820 C   0  0  0  0  0  2  0  0  0  0  0  0
   11.3640   -1.1000   -1.3140 C   0  0  0  0  0  2  0  0  0  0  0  0
   10.1230   -1.7290   -0.6850 C   0  0  0  0  0  2  0  0  0  0  0  0
    4.4730   -7.2480    0.8490 O   0  0  0  0  0  1  0  0  0  0  0  0
    5.3300   -7.0910   -0.0800 C   0  0  0  0  0  0  0  0  0  0  0  0
    5.3540   -7.7260   -1.1810 O   0  0  0  0  0  0  0  0  0  0  0  0
  1  6  1  0  0  0  0
  2  3  1  0  0  0  0
  2  1  2  0  0  0  0
  3  4  2  0  0  0  0
  4  9  1  0  0  0  0
  4  5  1  0  0  0  0
  5  7  1  0  0  0  0
  6  5  2  0  0  0  0
  8  7  2  0  0  0  0
  8 10  1  0  0  0  0
  9  8  1  0  0  0  0
 10 11  1  0  0  0  0
 11 12  2  0  0  0  0
 13 12  1  0  0  0  0
 13 14  1  0  0  0  0
 15 14  2  0  0  0  0
 16 15  1  0  0  0  0
 17 18  1  0  0  0  0
 17 16  2  0  0  0  0
 18 13  2  0  0  0  0
 19 10  2  0  0  0  0
 19 18  1  0  0  0  0
 20  9  1  0  0  0  0
 21 20  1  0  0  0  0
 22 21  1  0  0  0  0
 23 24  1  0  0  0  0
 23 22  1  0  0  0  0
 24 25  1  0  0  0  0
 25 20  1  0  0  0  0
 27  1  1  0  0  0  0
 27 26  1  0  0  0  0
 28 27  2  0  0  0  0
M  END
>  <minimizedAffinity>
-8.74362564

$$$$
