
 OpenBabel09122222393D

 28 32  0  0  0  0  0  0  0  0999 V2000
    7.5580   -5.5460    0.8570 C   0  0  0  0  0  0  0  0  0  0  0  0
    7.7140   -6.9370    0.7550 C   0  0  0  0  0  3  0  0  0  0  0  0
    6.9010   -7.8350    1.4600 C   0  0  0  0  0  3  0  0  0  0  0  0
    5.9060   -7.2950    2.2850 C   0  0  0  0  0  0  0  0  0  0  0  0
    5.7400   -5.9220    2.4310 C   0  0  0  0  0  0  0  0  0  0  0  0
    6.5600   -5.0390    1.7110 C   0  0  0  0  0  3  0  0  0  0  0  0
    4.7370   -5.6450    3.3230 N   0  0  0  0  0  0  0  0  0  0  0  0
    4.3050   -6.8110    3.7780 C   0  0  0  0  0  0  0  0  0  0  0  0
    4.9150   -7.8470    3.0790 N   0  0  0  0  0  0  0  0  0  0  0  0
    3.3100   -6.9340    4.8540 C   0  0  0  0  0  0  0  0  0  0  0  0
    2.1560   -7.6800    4.6560 C   0  0  0  0  0  3  0  0  0  0  0  0
    1.2170   -7.7460    5.6800 C   0  0  0  0  0  3  0  0  0  0  0  0
    1.4460   -7.0540    6.8730 C   0  0  0  0  0  0  0  0  0  0  0  0
    0.5270   -7.0860    7.9360 C   0  0  0  0  0  3  0  0  0  0  0  0
    0.7830   -6.3800    9.1090 C   0  0  0  0  0  3  0  0  0  0  0  0
    1.9560   -5.6410    9.2240 C   0  0  0  0  0  3  0  0  0  0  0  0
    2.8670   -5.6110    8.1640 C   0  0  0  0  0  3  0  0  0  0  0  0
    2.6370   -6.3070    6.9840 C   0  0  0  0  0  0  0  0  0  0  0  0
    3.5490   -6.2450    5.9980 N   0  0  0  0  0  0  0  0  0  0  0  0
    4.5420   -9.2580    3.1280 C   0  0  0  0  0  3  0  0  0  0  0  0
    4.0190   -9.8120    1.7880 C   0  0  0  0  0  2  0  0  0  0  0  0
    3.5860  -11.2710    1.9280 C   0  0  0  0  0  2  0  0  0  0  0  0
    4.7060  -12.1370    2.4990 C   0  0  0  0  0  2  0  0  0  0  0  0
    5.2180  -11.5920    3.8300 C   0  0  0  0  0  2  0  0  0  0  0  0
    5.6580  -10.1350    3.7150 C   0  0  0  0  0  2  0  0  0  0  0  0
    9.0090   -3.6630    0.7160 O   0  0  0  0  0  1  0  0  0  0  0  0
    8.4520   -4.6080    0.0700 C   0  0  0  0  0  0  0  0  0  0  0  0
    8.5830   -4.8340   -1.1740 O   0  0  0  0  0  0  0  0  0  0  0  0
  1  6  1  0  0  0  0
  2  1  2  0  0  0  0
  2  3  1  0  0  0  0
  3  4  2  0  0  0  0
  4  5  1  0  0  0  0
  4  9  1  0  0  0  0
  5  7  1  0  0  0  0
  6  5  2  0  0  0  0
  7  8  2  0  0  0  0
  8 10  1  0  0  0  0
  9 20  1  0  0  0  0
  9  8  1  0  0  0  0
 10 19  1  0  0  0  0
 11 10  2  0  0  0  0
 11 12  1  0  0  0  0
 12 13  2  0  0  0  0
 13 18  1  0  0  0  0
 13 14  1  0  0  0  0
 14 15  2  0  0  0  0
 15 16  1  0  0  0  0
 17 16  2  0  0  0  0
 18 17  1  0  0  0  0
 19 18  2  0  0  0  0
 20 25  1  0  0  0  0
 21 22  1  0  0  0  0
 21 20  1  0  0  0  0
 22 23  1  0  0  0  0
 23 24  1  0  0  0  0
 25 24  1  0  0  0  0
 27 26  1  0  0  0  0
 27  1  1  0  0  0  0
 28 27  2  0  0  0  0
M  END
>  <minimizedAffinity>
-7.67647314

$$$$
