
 OpenBabel09122219393D

 28 32  0  0  0  0  0  0  0  0999 V2000
    5.9290   -6.2780    0.4660 C   0  0  0  0  0  0  0  0  0  0  0  0
    6.1460   -5.7860    1.7620 C   0  0  0  0  0  3  0  0  0  0  0  0
    7.1820   -4.8890    2.0580 C   0  0  0  0  0  3  0  0  0  0  0  0
    8.0100   -4.4860    1.0020 C   0  0  0  0  0  0  0  0  0  0  0  0
    7.8390   -4.9730   -0.2890 C   0  0  0  0  0  0  0  0  0  0  0  0
    6.7920   -5.8650   -0.5670 C   0  0  0  0  0  3  0  0  0  0  0  0
    8.7960   -4.4680   -1.1310 N   0  0  0  0  0  0  0  0  0  0  0  0
    9.5930   -3.7160   -0.3860 C   0  0  0  0  0  0  0  0  0  0  0  0
    9.0760   -3.6090    0.9000 N   0  0  0  0  0  0  0  0  0  0  0  0
   10.8230   -3.0950   -0.9010 C   0  0  0  0  0  0  0  0  0  0  0  0
   11.9990   -3.8290   -0.9710 C   0  0  0  0  0  3  0  0  0  0  0  0
   13.1530   -3.2030   -1.4260 C   0  0  0  0  0  3  0  0  0  0  0  0
   13.1100   -1.8540   -1.7890 C   0  0  0  0  0  0  0  0  0  0  0  0
   14.2500   -1.1730   -2.2530 C   0  0  0  0  0  3  0  0  0  0  0  0
   14.1730    0.1730   -2.6010 C   0  0  0  0  0  3  0  0  0  0  0  0
   12.9600    0.8440   -2.4870 C   0  0  0  0  0  3  0  0  0  0  0  0
   11.8290    0.1640   -2.0250 C   0  0  0  0  0  3  0  0  0  0  0  0
   11.8770   -1.1780   -1.6720 C   0  0  0  0  0  0  0  0  0  0  0  0
   10.7580   -1.7820   -1.2370 N   0  0  0  0  0  0  0  0  0  0  0  0
    9.5360   -2.6930    1.9410 C   0  0  0  0  0  3  0  0  0  0  0  0
    8.8050   -1.3360    1.9450 C   0  0  0  0  0  2  0  0  0  0  0  0
    9.3800   -0.4050    3.0130 C   0  0  0  0  0  2  0  0  0  0  0  0
    9.3660   -1.0590    4.3930 C   0  0  0  0  0  2  0  0  0  0  0  0
   10.0950   -2.3990    4.3900 C   0  0  0  0  0  2  0  0  0  0  0  0
    9.5370   -3.3470    3.3310 C   0  0  0  0  0  2  0  0  0  0  0  0
    4.7030   -7.7010   -0.9980 O   0  0  0  0  0  0  0  0  0  0  0  0
    4.7910   -7.2390    0.1850 C   0  0  0  0  0  0  0  0  0  0  0  0
    4.0100   -7.5170    1.1490 O   0  0  0  0  0  1  0  0  0  0  0  0
  1  2  1  0  0  0  0
  2  3  2  0  0  0  0
  4  3  1  0  0  0  0
  5  4  2  0  0  0  0
  6  5  1  0  0  0  0
  6  1  2  0  0  0  0
  7  8  2  0  0  0  0
  7  5  1  0  0  0  0
  8  9  1  0  0  0  0
  9  4  1  0  0  0  0
  9 20  1  0  0  0  0
 10  8  1  0  0  0  0
 11 10  1  0  0  0  0
 12 11  2  0  0  0  0
 13 18  1  0  0  0  0
 13 12  1  0  0  0  0
 14 13  2  0  0  0  0
 15 16  2  0  0  0  0
 15 14  1  0  0  0  0
 16 17  1  0  0  0  0
 17 18  2  0  0  0  0
 18 19  1  0  0  0  0
 19 10  2  0  0  0  0
 20 21  1  0  0  0  0
 20 25  1  0  0  0  0
 21 22  1  0  0  0  0
 22 23  1  0  0  0  0
 24 23  1  0  0  0  0
 25 24  1  0  0  0  0
 26 27  2  0  0  0  0
 27  1  1  0  0  0  0
 27 28  1  0  0  0  0
M  END
>  <minimizedAffinity>
-9.29486942

$$$$

 OpenBabel09122219393D

 28 32  0  0  0  0  0  0  0  0999 V2000
    6.4100   -6.0530    0.1490 C   0  0  0  0  0  0  0  0  0  0  0  0
    7.2210   -5.6190   -0.9110 C   0  0  0  0  0  3  0  0  0  0  0  0
    8.2360   -4.6680   -0.7350 C   0  0  0  0  0  3  0  0  0  0  0  0
    8.4250   -4.1530    0.5540 C   0  0  0  0  0  0  0  0  0  0  0  0
    7.6230   -4.5420    1.6220 C   0  0  0  0  0  0  0  0  0  0  0  0
    6.6160   -5.5000    1.4280 C   0  0  0  0  0  3  0  0  0  0  0  0
    7.9720   -3.8670    2.7630 N   0  0  0  0  0  0  0  0  0  0  0  0
    8.9400   -3.0300    2.4240 C   0  0  0  0  0  0  0  0  0  0  0  0
    9.3240   -3.2590    1.1080 N   0  0  0  0  0  0  0  0  0  0  0  0
    9.5020   -2.0340    3.3500 C   0  0  0  0  0  0  0  0  0  0  0  0
   10.0010   -2.4320    4.5830 C   0  0  0  0  0  3  0  0  0  0  0  0
   10.4900   -1.4620    5.4510 C   0  0  0  0  0  3  0  0  0  0  0  0
   10.4570   -0.1160    5.0730 C   0  0  0  0  0  0  0  0  0  0  0  0
   10.9360    0.9020    5.9160 C   0  0  0  0  0  3  0  0  0  0  0  0
   10.8840    2.2340    5.5110 C   0  0  0  0  0  3  0  0  0  0  0  0
   10.3520    2.5520    4.2660 C   0  0  0  0  0  3  0  0  0  0  0  0
    9.8760    1.5370    3.4310 C   0  0  0  0  0  3  0  0  0  0  0  0
    9.9180    0.2010    3.8090 C   0  0  0  0  0  0  0  0  0  0  0  0
    9.4490   -0.7340    2.9660 N   0  0  0  0  0  0  0  0  0  0  0  0
   10.4990   -2.7020    0.4420 C   0  0  0  0  0  3  0  0  0  0  0  0
   11.5120   -3.7650   -0.0280 C   0  0  0  0  0  2  0  0  0  0  0  0
   12.7440   -3.1110   -0.6540 C   0  0  0  0  0  2  0  0  0  0  0  0
   12.3610   -2.1560   -1.7820 C   0  0  0  0  0  2  0  0  0  0  0  0
   11.3640   -1.1000   -1.3140 C   0  0  0  0  0  2  0  0  0  0  0  0
   10.1230   -1.7290   -0.6850 C   0  0  0  0  0  2  0  0  0  0  0  0
    4.4730   -7.2480    0.8490 O   0  0  0  0  0  1  0  0  0  0  0  0
    5.3300   -7.0910   -0.0800 C   0  0  0  0  0  0  0  0  0  0  0  0
    5.3540   -7.7260   -1.1810 O   0  0  0  0  0  0  0  0  0  0  0  0
  1  6  1  0  0  0  0
  2  3  1  0  0  0  0
  2  1  2  0  0  0  0
  3  4  2  0  0  0  0
  4  9  1  0  0  0  0
  4  5  1  0  0  0  0
  5  7  1  0  0  0  0
  6  5  2  0  0  0  0
  8  7  2  0  0  0  0
  8 10  1  0  0  0  0
  9  8  1  0  0  0  0
 10 11  1  0  0  0  0
 11 12  2  0  0  0  0
 13 12  1  0  0  0  0
 13 14  1  0  0  0  0
 15 14  2  0  0  0  0
 16 15  1  0  0  0  0
 17 18  1  0  0  0  0
 17 16  2  0  0  0  0
 18 13  2  0  0  0  0
 19 10  2  0  0  0  0
 19 18  1  0  0  0  0
 20  9  1  0  0  0  0
 21 20  1  0  0  0  0
 22 21  1  0  0  0  0
 23 24  1  0  0  0  0
 23 22  1  0  0  0  0
 24 25  1  0  0  0  0
 25 20  1  0  0  0  0
 27  1  1  0  0  0  0
 27 26  1  0  0  0  0
 28 27  2  0  0  0  0
M  END
>  <minimizedAffinity>
-8.74362564

$$$$

 OpenBabel09122219393D

 28 32  0  0  0  0  0  0  0  0999 V2000
    6.0710   -6.2810   -0.0850 C   0  0  0  0  0  0  0  0  0  0  0  0
    6.9130   -5.8140   -1.1060 C   0  0  0  0  0  3  0  0  0  0  0  0
    7.9250   -4.8740   -0.8690 C   0  0  0  0  0  3  0  0  0  0  0  0
    8.0790   -4.4040    0.4420 C   0  0  0  0  0  0  0  0  0  0  0  0
    7.2450   -4.8250    1.4720 C   0  0  0  0  0  0  0  0  0  0  0  0
    6.2420   -5.7730    1.2170 C   0  0  0  0  0  3  0  0  0  0  0  0
    7.5630   -4.1910    2.6460 N   0  0  0  0  0  0  0  0  0  0  0  0
    8.5430   -3.3470    2.3630 C   0  0  0  0  0  0  0  0  0  0  0  0
    8.9640   -3.5320    1.0510 N   0  0  0  0  0  0  0  0  0  0  0  0
    9.0810   -2.3850    3.3380 C   0  0  0  0  0  0  0  0  0  0  0  0
    9.2820   -1.0610    2.9750 C   0  0  0  0  0  3  0  0  0  0  0  0
    9.8270   -0.1860    3.9080 C   0  0  0  0  0  3  0  0  0  0  0  0
   10.1710   -0.6570    5.1780 C   0  0  0  0  0  0  0  0  0  0  0  0
   10.7280    0.1860    6.1560 C   0  0  0  0  0  3  0  0  0  0  0  0
   11.0640   -0.3170    7.4110 C   0  0  0  0  0  3  0  0  0  0  0  0
   10.8470   -1.6620    7.6920 C   0  0  0  0  0  3  0  0  0  0  0  0
   10.2940   -2.4970    6.7170 C   0  0  0  0  0  3  0  0  0  0  0  0
    9.9480   -2.0210    5.4590 C   0  0  0  0  0  0  0  0  0  0  0  0
    9.4160   -2.8680    4.5610 N   0  0  0  0  0  0  0  0  0  0  0  0
   10.1600   -2.9580    0.4390 C   0  0  0  0  0  3  0  0  0  0  0  0
   11.1050   -4.0030   -0.1840 C   0  0  0  0  0  2  0  0  0  0  0  0
   12.3630   -3.3410   -0.7460 C   0  0  0  0  0  2  0  0  0  0  0  0
   12.0190   -2.2300   -1.7340 C   0  0  0  0  0  2  0  0  0  0  0  0
   11.0880   -1.1910   -1.1150 C   0  0  0  0  0  2  0  0  0  0  0  0
    9.8230   -1.8290   -0.5470 C   0  0  0  0  0  2  0  0  0  0  0  0
    3.8240   -7.0570    0.0540 O   0  0  0  0  0  1  0  0  0  0  0  0
    4.9950   -7.3060   -0.3790 C   0  0  0  0  0  0  0  0  0  0  0  0
    5.3360   -8.3380   -1.0400 O   0  0  0  0  0  0  0  0  0  0  0  0
  1  6  1  0  0  0  0
  2  3  1  0  0  0  0
  2  1  2  0  0  0  0
  3  4  2  0  0  0  0
  4  9  1  0  0  0  0
  4  5  1  0  0  0  0
  5  7  1  0  0  0  0
  6  5  2  0  0  0  0
  8  7  2  0  0  0  0
  8 10  1  0  0  0  0
  9  8  1  0  0  0  0
 10 19  1  0  0  0  0
 11 10  2  0  0  0  0
 11 12  1  0  0  0  0
 12 13  2  0  0  0  0
 13 18  1  0  0  0  0
 13 14  1  0  0  0  0
 14 15  2  0  0  0  0
 15 16  1  0  0  0  0
 17 16  2  0  0  0  0
 18 17  1  0  0  0  0
 19 18  2  0  0  0  0
 20  9  1  0  0  0  0
 21 20  1  0  0  0  0
 22 21  1  0  0  0  0
 23 24  1  0  0  0  0
 23 22  1  0  0  0  0
 24 25  1  0  0  0  0
 25 20  1  0  0  0  0
 27  1  1  0  0  0  0
 27 26  1  0  0  0  0
 28 27  2  0  0  0  0
M  END
>  <minimizedAffinity>
-8.2709341

$$$$

 OpenBabel09122219393D

 28 32  0  0  0  0  0  0  0  0999 V2000
    1.8640   -9.6730    6.2760 C   0  0  0  0  0  0  0  0  0  0  0  0
    1.9380   -8.4450    6.9510 C   0  0  0  0  0  3  0  0  0  0  0  0
    2.4940   -7.3010    6.3620 C   0  0  0  0  0  3  0  0  0  0  0  0
    2.9810   -7.4170    5.0540 C   0  0  0  0  0  0  0  0  0  0  0  0
    2.9470   -8.6250    4.3650 C   0  0  0  0  0  0  0  0  0  0  0  0
    2.3810   -9.7590    4.9690 C   0  0  0  0  0  3  0  0  0  0  0  0
    3.5220   -8.4960    3.1270 N   0  0  0  0  0  0  0  0  0  0  0  0
    3.9600   -7.2490    3.0440 C   0  0  0  0  0  0  0  0  0  0  0  0
    3.5440   -6.5260    4.1560 N   0  0  0  0  0  0  0  0  0  0  0  0
    4.7520   -6.7500    1.9090 C   0  0  0  0  0  0  0  0  0  0  0  0
    4.3570   -7.0270    0.6070 C   0  0  0  0  0  3  0  0  0  0  0  0
    5.1470   -6.5730   -0.4430 C   0  0  0  0  0  3  0  0  0  0  0  0
    6.3210   -5.8650   -0.1680 C   0  0  0  0  0  0  0  0  0  0  0  0
    7.1560   -5.3880   -1.1940 C   0  0  0  0  0  3  0  0  0  0  0  0
    8.3220   -4.6910   -0.8860 C   0  0  0  0  0  3  0  0  0  0  0  0
    8.6570   -4.4690    0.4460 C   0  0  0  0  0  3  0  0  0  0  0  0
    7.8250   -4.9460    1.4630 C   0  0  0  0  0  3  0  0  0  0  0  0
    6.6560   -5.6420    1.1840 C   0  0  0  0  0  0  0  0  0  0  0  0
    5.8910   -6.0750    2.2010 N   0  0  0  0  0  0  0  0  0  0  0  0
    3.6300   -5.0780    4.3260 C   0  0  0  0  0  3  0  0  0  0  0  0
    2.2620   -4.3850    4.4740 C   0  0  0  0  0  2  0  0  0  0  0  0
    2.4230   -2.8680    4.5810 C   0  0  0  0  0  2  0  0  0  0  0  0
    3.3760   -2.4830    5.7090 C   0  0  0  0  0  2  0  0  0  0  0  0
    4.7340   -3.1640    5.5590 C   0  0  0  0  0  2  0  0  0  0  0  0
    4.5990   -4.6820    5.4510 C   0  0  0  0  0  2  0  0  0  0  0  0
    1.8160  -12.0070    6.7470 O   0  0  0  0  0  0  0  0  0  0  0  0
    1.2460  -10.8850    6.9430 C   0  0  0  0  0  0  0  0  0  0  0  0
    0.2080  -10.6960    7.6530 O   0  0  0  0  0  1  0  0  0  0  0  0
  1 27  1  0  0  0  0
  1  2  1  0  0  0  0
  3  2  2  0  0  0  0
  4  3  1  0  0  0  0
  5  6  1  0  0  0  0
  5  4  2  0  0  0  0
  6  1  2  0  0  0  0
  7  5  1  0  0  0  0
  8  7  2  0  0  0  0
  8  9  1  0  0  0  0
  9 20  1  0  0  0  0
  9  4  1  0  0  0  0
 10 19  1  0  0  0  0
 10  8  1  0  0  0  0
 11 10  2  0  0  0  0
 12 13  2  0  0  0  0
 12 11  1  0  0  0  0
 13 18  1  0  0  0  0
 14 15  2  0  0  0  0
 14 13  1  0  0  0  0
 15 16  1  0  0  0  0
 16 17  2  0  0  0  0
 18 17  1  0  0  0  0
 18 19  2  0  0  0  0
 20 21  1  0  0  0  0
 20 25  1  0  0  0  0
 21 22  1  0  0  0  0
 22 23  1  0  0  0  0
 24 23  1  0  0  0  0
 25 24  1  0  0  0  0
 26 27  2  0  0  0  0
 27 28  1  0  0  0  0
M  END
>  <minimizedAffinity>
-8.00715256

$$$$

 OpenBabel09122219393D

 28 32  0  0  0  0  0  0  0  0999 V2000
    5.1510   -6.5710    0.7520 C   0  0  0  0  0  0  0  0  0  0  0  0
    4.8000   -7.6600    1.5660 C   0  0  0  0  0  3  0  0  0  0  0  0
    4.2920   -7.4920    2.8610 C   0  0  0  0  0  3  0  0  0  0  0  0
    4.1380   -6.1810    3.3310 C   0  0  0  0  0  0  0  0  0  0  0  0
    4.5000   -5.0800    2.5620 C   0  0  0  0  0  0  0  0  0  0  0  0
    5.0010   -5.2680    1.2650 C   0  0  0  0  0  3  0  0  0  0  0  0
    4.2990   -3.9150    3.2560 N   0  0  0  0  0  0  0  0  0  0  0  0
    3.8680   -4.2620    4.4580 C   0  0  0  0  0  0  0  0  0  0  0  0
    3.6450   -5.6340    4.5030 N   0  0  0  0  0  0  0  0  0  0  0  0
    3.6550   -3.2950    5.5460 C   0  0  0  0  0  0  0  0  0  0  0  0
    2.4320   -2.6530    5.6810 C   0  0  0  0  0  3  0  0  0  0  0  0
    2.2750   -1.7160    6.6950 C   0  0  0  0  0  3  0  0  0  0  0  0
    3.3490   -1.4310    7.5440 C   0  0  0  0  0  0  0  0  0  0  0  0
    3.2430   -0.4900    8.5840 C   0  0  0  0  0  3  0  0  0  0  0  0
    4.3340   -0.2250    9.4080 C   0  0  0  0  0  3  0  0  0  0  0  0
    5.5330   -0.8980    9.1980 C   0  0  0  0  0  3  0  0  0  0  0  0
    5.6340   -1.8330    8.1630 C   0  0  0  0  0  3  0  0  0  0  0  0
    4.5620   -2.1170    7.3270 C   0  0  0  0  0  0  0  0  0  0  0  0
    4.7150   -3.0270    6.3500 N   0  0  0  0  0  0  0  0  0  0  0  0
    2.9610   -6.3630    5.5680 C   0  0  0  0  0  3  0  0  0  0  0  0
    3.5220   -6.0810    6.9760 C   0  0  0  0  0  2  0  0  0  0  0  0
    2.8070   -6.9240    8.0320 C   0  0  0  0  0  2  0  0  0  0  0  0
    1.2940   -6.7280    7.9760 C   0  0  0  0  0  2  0  0  0  0  0  0
    0.7380   -7.0140    6.5840 C   0  0  0  0  0  2  0  0  0  0  0  0
    1.4370   -6.1820    5.5110 C   0  0  0  0  0  2  0  0  0  0  0  0
    6.3930   -5.8620   -1.1520 O   0  0  0  0  0  1  0  0  0  0  0  0
    5.6880   -6.7940   -0.6480 C   0  0  0  0  0  0  0  0  0  0  0  0
    5.3990   -7.8950   -1.2150 O   0  0  0  0  0  0  0  0  0  0  0  0
  1  6  2  0  0  0  0
  1  2  1  0  0  0  0
  2  3  2  0  0  0  0
  3  4  1  0  0  0  0
  4  9  1  0  0  0  0
  5  7  1  0  0  0  0
  5  4  2  0  0  0  0
  6  5  1  0  0  0  0
  7  8  2  0  0  0  0
  8  9  1  0  0  0  0
  8 10  1  0  0  0  0
  9 20  1  0  0  0  0
 10 11  2  0  0  0  0
 10 19  1  0  0  0  0
 11 12  1  0  0  0  0
 12 13  2  0  0  0  0
 13 14  1  0  0  0  0
 14 15  2  0  0  0  0
 16 15  1  0  0  0  0
 17 16  2  0  0  0  0
 18 13  1  0  0  0  0
 18 17  1  0  0  0  0
 19 18  2  0  0  0  0
 20 21  1  0  0  0  0
 21 22  1  0  0  0  0
 23 22  1  0  0  0  0
 24 23  1  0  0  0  0
 25 20  1  0  0  0  0
 25 24  1  0  0  0  0
 26 27  1  0  0  0  0
 27  1  1  0  0  0  0
 28 27  2  0  0  0  0
M  END
>  <minimizedAffinity>
-7.94716454

$$$$

 OpenBabel09122219393D

 28 32  0  0  0  0  0  0  0  0999 V2000
    7.3580   -5.6350    1.0170 C   0  0  0  0  0  0  0  0  0  0  0  0
    8.0910   -5.4570   -0.1670 C   0  0  0  0  0  3  0  0  0  0  0  0
    8.8810   -4.3220   -0.3940 C   0  0  0  0  0  3  0  0  0  0  0  0
    8.9230   -3.3500    0.6140 C   0  0  0  0  0  0  0  0  0  0  0  0
    8.1880   -3.4810    1.7880 C   0  0  0  0  0  0  0  0  0  0  0  0
    7.4080   -4.6280    2.0000 C   0  0  0  0  0  3  0  0  0  0  0  0
    8.3580   -2.3840    2.5930 N   0  0  0  0  0  0  0  0  0  0  0  0
    9.1400   -1.5480    1.9290 C   0  0  0  0  0  0  0  0  0  0  0  0
    9.6010   -2.1530    0.7660 N   0  0  0  0  0  0  0  0  0  0  0  0
    9.4570   -0.1930    2.4090 C   0  0  0  0  0  0  0  0  0  0  0  0
    9.4060    0.8850    1.5370 C   0  0  0  0  0  3  0  0  0  0  0  0
    9.7470    2.1470    2.0110 C   0  0  0  0  0  3  0  0  0  0  0  0
   10.1450    2.3000    3.3420 C   0  0  0  0  0  0  0  0  0  0  0  0
   10.5040    3.5530    3.8700 C   0  0  0  0  0  3  0  0  0  0  0  0
   10.9010    3.6700    5.2000 C   0  0  0  0  0  3  0  0  0  0  0  0
   10.9430    2.5370    6.0060 C   0  0  0  0  0  3  0  0  0  0  0  0
   10.5870    1.2920    5.4770 C   0  0  0  0  0  3  0  0  0  0  0  0
   10.1850    1.1480    4.1550 C   0  0  0  0  0  0  0  0  0  0  0  0
    9.8510   -0.0720    3.7010 N   0  0  0  0  0  0  0  0  0  0  0  0
   10.6530   -1.6470   -0.1120 C   0  0  0  0  0  3  0  0  0  0  0  0
   11.6700   -2.7190   -0.5490 C   0  0  0  0  0  2  0  0  0  0  0  0
   12.7780   -2.1090   -1.4080 C   0  0  0  0  0  2  0  0  0  0  0  0
   12.2070   -1.3520   -2.6040 C   0  0  0  0  0  2  0  0  0  0  0  0
   11.2050   -0.2850   -2.1710 C   0  0  0  0  0  2  0  0  0  0  0  0
   10.0880   -0.8710   -1.3110 C   0  0  0  0  0  2  0  0  0  0  0  0
    5.9920   -7.4040    0.1960 O   0  0  0  0  0  0  0  0  0  0  0  0
    6.5230   -6.8810    1.2290 C   0  0  0  0  0  0  0  0  0  0  0  0
    6.4160   -7.3180    2.4180 O   0  0  0  0  0  1  0  0  0  0  0  0
  1 27  1  0  0  0  0
  1  6  1  0  0  0  0
  2  1  2  0  0  0  0
  3  2  1  0  0  0  0
  3  4  2  0  0  0  0
  4  9  1  0  0  0  0
  4  5  1  0  0  0  0
  5  6  2  0  0  0  0
  5  7  1  0  0  0  0
  8 10  1  0  0  0  0
  8  7  2  0  0  0  0
  9  8  1  0  0  0  0
 10 19  1  0  0  0  0
 11 12  1  0  0  0  0
 11 10  2  0  0  0  0
 12 13  2  0  0  0  0
 13 14  1  0  0  0  0
 13 18  1  0  0  0  0
 14 15  2  0  0  0  0
 15 16  1  0  0  0  0
 17 16  2  0  0  0  0
 18 17  1  0  0  0  0
 19 18  2  0  0  0  0
 20  9  1  0  0  0  0
 21 20  1  0  0  0  0
 22 21  1  0  0  0  0
 23 24  1  0  0  0  0
 23 22  1  0  0  0  0
 24 25  1  0  0  0  0
 25 20  1  0  0  0  0
 26 27  2  0  0  0  0
 27 28  1  0  0  0  0
M  END
>  <minimizedAffinity>
-7.8891139

$$$$

 OpenBabel09122219393D

 28 32  0  0  0  0  0  0  0  0999 V2000
    7.5480   -5.2050    1.1660 C   0  0  0  0  0  0  0  0  0  0  0  0
    8.2840   -5.1850   -0.0290 C   0  0  0  0  0  3  0  0  0  0  0  0
    9.0980   -4.1020   -0.3880 C   0  0  0  0  0  3  0  0  0  0  0  0
    9.1600   -3.0170    0.4960 C   0  0  0  0  0  0  0  0  0  0  0  0
    8.4240   -2.9920    1.6760 C   0  0  0  0  0  0  0  0  0  0  0  0
    7.6200   -4.0890    2.0220 C   0  0  0  0  0  3  0  0  0  0  0  0
    8.6160   -1.8110    2.3450 N   0  0  0  0  0  0  0  0  0  0  0  0
    9.4160   -1.0760    1.5870 C   0  0  0  0  0  0  0  0  0  0  0  0
    9.8630   -1.8250    0.5050 N   0  0  0  0  0  0  0  0  0  0  0  0
    9.7610    0.3190    1.9020 C   0  0  0  0  0  0  0  0  0  0  0  0
    9.9590    0.7090    3.2190 C   0  0  0  0  0  3  0  0  0  0  0  0
   10.2470    2.0430    3.4870 C   0  0  0  0  0  3  0  0  0  0  0  0
   10.3170    2.9590    2.4330 C   0  0  0  0  0  0  0  0  0  0  0  0
   10.6010    4.3190    2.6510 C   0  0  0  0  0  3  0  0  0  0  0  0
   10.6580    5.2070    1.5790 C   0  0  0  0  0  3  0  0  0  0  0  0
   10.4300    4.7410    0.2880 C   0  0  0  0  0  3  0  0  0  0  0  0
   10.1460    3.3880    0.0760 C   0  0  0  0  0  3  0  0  0  0  0  0
   10.0860    2.4810    1.1260 C   0  0  0  0  0  0  0  0  0  0  0  0
    9.8130    1.1920    0.8640 N   0  0  0  0  0  0  0  0  0  0  0  0
   10.9260   -1.4500   -0.4240 C   0  0  0  0  0  3  0  0  0  0  0  0
   11.9570   -2.5660   -0.6760 C   0  0  0  0  0  2  0  0  0  0  0  0
   13.0740   -2.0850   -1.6030 C   0  0  0  0  0  2  0  0  0  0  0  0
   12.5160   -1.5250   -2.9090 C   0  0  0  0  0  2  0  0  0  0  0  0
   11.5000   -0.4140   -2.6600 C   0  0  0  0  0  2  0  0  0  0  0  0
   10.3730   -0.8730   -1.7370 C   0  0  0  0  0  2  0  0  0  0  0  0
    6.7400   -7.4050    0.7420 O   0  0  0  0  0  0  0  0  0  0  0  0
    6.6880   -6.4000    1.5230 C   0  0  0  0  0  0  0  0  0  0  0  0
    5.9800   -6.3160    2.5760 O   0  0  0  0  0  1  0  0  0  0  0  0
  1 27  1  0  0  0  0
  1  6  1  0  0  0  0
  2  1  2  0  0  0  0
  3  2  1  0  0  0  0
  3  4  2  0  0  0  0
  4  9  1  0  0  0  0
  4  5  1  0  0  0  0
  5  6  2  0  0  0  0
  5  7  1  0  0  0  0
  8 10  1  0  0  0  0
  8  7  2  0  0  0  0
  9  8  1  0  0  0  0
 10 11  1  0  0  0  0
 11 12  2  0  0  0  0
 13 14  1  0  0  0  0
 13 12  1  0  0  0  0
 15 14  2  0  0  0  0
 16 15  1  0  0  0  0
 17 16  2  0  0  0  0
 17 18  1  0  0  0  0
 18 13  2  0  0  0  0
 19 18  1  0  0  0  0
 19 10  2  0  0  0  0
 20  9  1  0  0  0  0
 21 20  1  0  0  0  0
 22 21  1  0  0  0  0
 23 24  1  0  0  0  0
 23 22  1  0  0  0  0
 24 25  1  0  0  0  0
 25 20  1  0  0  0  0
 26 27  2  0  0  0  0
 27 28  1  0  0  0  0
M  END
>  <minimizedAffinity>
-7.76429319

$$$$

 OpenBabel09122219393D

 28 32  0  0  0  0  0  0  0  0999 V2000
    5.8640   -5.9160    2.0750 C   0  0  0  0  0  0  0  0  0  0  0  0
    5.7270   -4.5660    2.4320 C   0  0  0  0  0  3  0  0  0  0  0  0
    4.8070   -4.1380    3.3990 C   0  0  0  0  0  3  0  0  0  0  0  0
    4.0130   -5.1150    4.0140 C   0  0  0  0  0  0  0  0  0  0  0  0
    4.1040   -6.4580    3.6660 C   0  0  0  0  0  0  0  0  0  0  0  0
    5.0360   -6.8680    2.7000 C   0  0  0  0  0  3  0  0  0  0  0  0
    3.1970   -7.2070    4.3700 N   0  0  0  0  0  0  0  0  0  0  0  0
    2.5060   -6.3570    5.1140 C   0  0  0  0  0  0  0  0  0  0  0  0
    3.0540   -5.0830    5.0110 N   0  0  0  0  0  0  0  0  0  0  0  0
    1.3460   -6.7600    5.9250 C   0  0  0  0  0  0  0  0  0  0  0  0
    0.1310   -7.0400    5.3160 C   0  0  0  0  0  3  0  0  0  0  0  0
   -0.9550   -7.3800    6.1130 C   0  0  0  0  0  3  0  0  0  0  0  0
   -0.8060   -7.4210    7.5030 C   0  0  0  0  0  0  0  0  0  0  0  0
   -1.8750   -7.7570    8.3530 C   0  0  0  0  0  3  0  0  0  0  0  0
   -1.6940   -7.7830    9.7340 C   0  0  0  0  0  3  0  0  0  0  0  0
   -0.4480   -7.4730   10.2700 C   0  0  0  0  0  3  0  0  0  0  0  0
    0.6110   -7.1380    9.4210 C   0  0  0  0  0  3  0  0  0  0  0  0
    0.4590   -7.1070    8.0400 C   0  0  0  0  0  0  0  0  0  0  0  0
    1.5130   -6.7820    7.2720 N   0  0  0  0  0  0  0  0  0  0  0  0
    2.7200   -3.9310    5.8440 C   0  0  0  0  0  3  0  0  0  0  0  0
    3.8210   -3.5530    6.8550 C   0  0  0  0  0  2  0  0  0  0  0  0
    3.3800   -2.3840    7.7360 C   0  0  0  0  0  2  0  0  0  0  0  0
    2.9440   -1.1840    6.9000 C   0  0  0  0  0  2  0  0  0  0  0  0
    1.8490   -1.5570    5.9040 C   0  0  0  0  0  2  0  0  0  0  0  0
    2.2670   -2.7230    5.0110 C   0  0  0  0  0  2  0  0  0  0  0  0
    6.7400   -5.8570   -0.1390 O   0  0  0  0  0  0  0  0  0  0  0  0
    6.8790   -6.3390    1.0310 C   0  0  0  0  0  0  0  0  0  0  0  0
    7.7950   -7.1400    1.3990 O   0  0  0  0  0  1  0  0  0  0  0  0
  1  2  2  0  0  0  0
  1  6  1  0  0  0  0
  2  3  1  0  0  0  0
  3  4  2  0  0  0  0
  4  9  1  0  0  0  0
  5  4  1  0  0  0  0
  5  7  1  0  0  0  0
  6  5  2  0  0  0  0
  7  8  2  0  0  0  0
  8 10  1  0  0  0  0
  9  8  1  0  0  0  0
  9 20  1  0  0  0  0
 10 19  1  0  0  0  0
 11 10  2  0  0  0  0
 11 12  1  0  0  0  0
 12 13  2  0  0  0  0
 13 18  1  0  0  0  0
 13 14  1  0  0  0  0
 14 15  2  0  0  0  0
 15 16  1  0  0  0  0
 17 16  2  0  0  0  0
 18 17  1  0  0  0  0
 19 18  2  0  0  0  0
 20 21  1  0  0  0  0
 21 22  1  0  0  0  0
 23 22  1  0  0  0  0
 24 23  1  0  0  0  0
 25 20  1  0  0  0  0
 25 24  1  0  0  0  0
 26 27  2  0  0  0  0
 27 28  1  0  0  0  0
 27  1  1  0  0  0  0
M  END
>  <minimizedAffinity>
-7.73642063

$$$$

 OpenBabel09122219393D

 28 32  0  0  0  0  0  0  0  0999 V2000
    7.5580   -5.5460    0.8570 C   0  0  0  0  0  0  0  0  0  0  0  0
    7.7140   -6.9370    0.7550 C   0  0  0  0  0  3  0  0  0  0  0  0
    6.9010   -7.8350    1.4600 C   0  0  0  0  0  3  0  0  0  0  0  0
    5.9060   -7.2950    2.2850 C   0  0  0  0  0  0  0  0  0  0  0  0
    5.7400   -5.9220    2.4310 C   0  0  0  0  0  0  0  0  0  0  0  0
    6.5600   -5.0390    1.7110 C   0  0  0  0  0  3  0  0  0  0  0  0
    4.7370   -5.6450    3.3230 N   0  0  0  0  0  0  0  0  0  0  0  0
    4.3050   -6.8110    3.7780 C   0  0  0  0  0  0  0  0  0  0  0  0
    4.9150   -7.8470    3.0790 N   0  0  0  0  0  0  0  0  0  0  0  0
    3.3100   -6.9340    4.8540 C   0  0  0  0  0  0  0  0  0  0  0  0
    2.1560   -7.6800    4.6560 C   0  0  0  0  0  3  0  0  0  0  0  0
    1.2170   -7.7460    5.6800 C   0  0  0  0  0  3  0  0  0  0  0  0
    1.4460   -7.0540    6.8730 C   0  0  0  0  0  0  0  0  0  0  0  0
    0.5270   -7.0860    7.9360 C   0  0  0  0  0  3  0  0  0  0  0  0
    0.7830   -6.3800    9.1090 C   0  0  0  0  0  3  0  0  0  0  0  0
    1.9560   -5.6410    9.2240 C   0  0  0  0  0  3  0  0  0  0  0  0
    2.8670   -5.6110    8.1640 C   0  0  0  0  0  3  0  0  0  0  0  0
    2.6370   -6.3070    6.9840 C   0  0  0  0  0  0  0  0  0  0  0  0
    3.5490   -6.2450    5.9980 N   0  0  0  0  0  0  0  0  0  0  0  0
    4.5420   -9.2580    3.1280 C   0  0  0  0  0  3  0  0  0  0  0  0
    4.0190   -9.8120    1.7880 C   0  0  0  0  0  2  0  0  0  0  0  0
    3.5860  -11.2710    1.9280 C   0  0  0  0  0  2  0  0  0  0  0  0
    4.7060  -12.1370    2.4990 C   0  0  0  0  0  2  0  0  0  0  0  0
    5.2180  -11.5920    3.8300 C   0  0  0  0  0  2  0  0  0  0  0  0
    5.6580  -10.1350    3.7150 C   0  0  0  0  0  2  0  0  0  0  0  0
    9.0090   -3.6630    0.7160 O   0  0  0  0  0  1  0  0  0  0  0  0
    8.4520   -4.6080    0.0700 C   0  0  0  0  0  0  0  0  0  0  0  0
    8.5830   -4.8340   -1.1740 O   0  0  0  0  0  0  0  0  0  0  0  0
  1  6  1  0  0  0  0
  2  1  2  0  0  0  0
  2  3  1  0  0  0  0
  3  4  2  0  0  0  0
  4  5  1  0  0  0  0
  4  9  1  0  0  0  0
  5  7  1  0  0  0  0
  6  5  2  0  0  0  0
  7  8  2  0  0  0  0
  8 10  1  0  0  0  0
  9 20  1  0  0  0  0
  9  8  1  0  0  0  0
 10 19  1  0  0  0  0
 11 10  2  0  0  0  0
 11 12  1  0  0  0  0
 12 13  2  0  0  0  0
 13 18  1  0  0  0  0
 13 14  1  0  0  0  0
 14 15  2  0  0  0  0
 15 16  1  0  0  0  0
 17 16  2  0  0  0  0
 18 17  1  0  0  0  0
 19 18  2  0  0  0  0
 20 25  1  0  0  0  0
 21 22  1  0  0  0  0
 21 20  1  0  0  0  0
 22 23  1  0  0  0  0
 23 24  1  0  0  0  0
 25 24  1  0  0  0  0
 27 26  1  0  0  0  0
 27  1  1  0  0  0  0
 28 27  2  0  0  0  0
M  END
>  <minimizedAffinity>
-7.67647314

$$$$

 OpenBabel09122219393D

 28 32  0  0  0  0  0  0  0  0999 V2000
    9.5900   -3.7690    0.3950 C   0  0  0  0  0  0  0  0  0  0  0  0
    9.0190   -4.9360   -0.1360 C   0  0  0  0  0  3  0  0  0  0  0  0
    7.8510   -5.5030    0.3920 C   0  0  0  0  0  3  0  0  0  0  0  0
    7.2560   -4.8610    1.4850 C   0  0  0  0  0  0  0  0  0  0  0  0
    7.8100   -3.7180    2.0530 C   0  0  0  0  0  0  0  0  0  0  0  0
    8.9760   -3.1600    1.5060 C   0  0  0  0  0  3  0  0  0  0  0  0
    7.0740   -3.3060    3.1330 N   0  0  0  0  0  0  0  0  0  0  0  0
    6.1010   -4.1920    3.2860 C   0  0  0  0  0  0  0  0  0  0  0  0
    6.1110   -5.0920    2.2270 N   0  0  0  0  0  0  0  0  0  0  0  0
    5.1650   -4.1690    4.4210 C   0  0  0  0  0  0  0  0  0  0  0  0
    3.8440   -3.7900    4.2280 C   0  0  0  0  0  3  0  0  0  0  0  0
    2.9940   -3.7420    5.3270 C   0  0  0  0  0  3  0  0  0  0  0  0
    3.4870   -4.0610    6.5960 C   0  0  0  0  0  0  0  0  0  0  0  0
    2.6700   -4.0250    7.7400 C   0  0  0  0  0  3  0  0  0  0  0  0
    3.1940   -4.3430    8.9900 C   0  0  0  0  0  3  0  0  0  0  0  0
    4.5350   -4.6970    9.1030 C   0  0  0  0  0  3  0  0  0  0  0  0
    5.3440   -4.7310    7.9640 C   0  0  0  0  0  3  0  0  0  0  0  0
    4.8470   -4.4200    6.7050 C   0  0  0  0  0  0  0  0  0  0  0  0
    5.6700   -4.4720    5.6430 N   0  0  0  0  0  0  0  0  0  0  0  0
    5.0710   -6.0700    1.9160 C   0  0  0  0  0  3  0  0  0  0  0  0
    4.9470   -6.3920    0.4140 C   0  0  0  0  0  2  0  0  0  0  0  0
    3.7990   -7.3690    0.1540 C   0  0  0  0  0  2  0  0  0  0  0  0
    3.9390   -8.6350    0.9950 C   0  0  0  0  0  2  0  0  0  0  0  0
    4.0550   -8.3160    2.4820 C   0  0  0  0  0  2  0  0  0  0  0  0
    5.1960   -7.3420    2.7670 C   0  0  0  0  0  2  0  0  0  0  0  0
   11.9440   -3.4030    0.3990 O   0  0  0  0  0  1  0  0  0  0  0  0
   10.8480   -3.1800   -0.2120 C   0  0  0  0  0  0  0  0  0  0  0  0
   10.7210   -2.5100   -1.2850 O   0  0  0  0  0  0  0  0  0  0  0  0
  1  6  1  0  0  0  0
  2  3  1  0  0  0  0
  2  1  2  0  0  0  0
  3  4  2  0  0  0  0
  4  5  1  0  0  0  0
  4  9  1  0  0  0  0
  5  7  1  0  0  0  0
  6  5  2  0  0  0  0
  7  8  2  0  0  0  0
  8 10  1  0  0  0  0
  9  8  1  0  0  0  0
 10 19  1  0  0  0  0
 11 10  2  0  0  0  0
 11 12  1  0  0  0  0
 12 13  2  0  0  0  0
 13 18  1  0  0  0  0
 13 14  1  0  0  0  0
 14 15  2  0  0  0  0
 15 16  1  0  0  0  0
 17 16  2  0  0  0  0
 18 17  1  0  0  0  0
 19 18  2  0  0  0  0
 20  9  1  0  0  0  0
 20 25  1  0  0  0  0
 21 20  1  0  0  0  0
 22 21  1  0  0  0  0
 22 23  1  0  0  0  0
 23 24  1  0  0  0  0
 24 25  1  0  0  0  0
 27  1  1  0  0  0  0
 27 26  1  0  0  0  0
 28 27  2  0  0  0  0
M  END
>  <minimizedAffinity>
-7.66621447

$$$$
