
 OpenBabel09122222393D

 28 32  0  0  0  0  0  0  0  0999 V2000
    5.1510   -6.5710    0.7520 C   0  0  0  0  0  0  0  0  0  0  0  0
    4.8000   -7.6600    1.5660 C   0  0  0  0  0  3  0  0  0  0  0  0
    4.2920   -7.4920    2.8610 C   0  0  0  0  0  3  0  0  0  0  0  0
    4.1380   -6.1810    3.3310 C   0  0  0  0  0  0  0  0  0  0  0  0
    4.5000   -5.0800    2.5620 C   0  0  0  0  0  0  0  0  0  0  0  0
    5.0010   -5.2680    1.2650 C   0  0  0  0  0  3  0  0  0  0  0  0
    4.2990   -3.9150    3.2560 N   0  0  0  0  0  0  0  0  0  0  0  0
    3.8680   -4.2620    4.4580 C   0  0  0  0  0  0  0  0  0  0  0  0
    3.6450   -5.6340    4.5030 N   0  0  0  0  0  0  0  0  0  0  0  0
    3.6550   -3.2950    5.5460 C   0  0  0  0  0  0  0  0  0  0  0  0
    2.4320   -2.6530    5.6810 C   0  0  0  0  0  3  0  0  0  0  0  0
    2.2750   -1.7160    6.6950 C   0  0  0  0  0  3  0  0  0  0  0  0
    3.3490   -1.4310    7.5440 C   0  0  0  0  0  0  0  0  0  0  0  0
    3.2430   -0.4900    8.5840 C   0  0  0  0  0  3  0  0  0  0  0  0
    4.3340   -0.2250    9.4080 C   0  0  0  0  0  3  0  0  0  0  0  0
    5.5330   -0.8980    9.1980 C   0  0  0  0  0  3  0  0  0  0  0  0
    5.6340   -1.8330    8.1630 C   0  0  0  0  0  3  0  0  0  0  0  0
    4.5620   -2.1170    7.3270 C   0  0  0  0  0  0  0  0  0  0  0  0
    4.7150   -3.0270    6.3500 N   0  0  0  0  0  0  0  0  0  0  0  0
    2.9610   -6.3630    5.5680 C   0  0  0  0  0  3  0  0  0  0  0  0
    3.5220   -6.0810    6.9760 C   0  0  0  0  0  2  0  0  0  0  0  0
    2.8070   -6.9240    8.0320 C   0  0  0  0  0  2  0  0  0  0  0  0
    1.2940   -6.7280    7.9760 C   0  0  0  0  0  2  0  0  0  0  0  0
    0.7380   -7.0140    6.5840 C   0  0  0  0  0  2  0  0  0  0  0  0
    1.4370   -6.1820    5.5110 C   0  0  0  0  0  2  0  0  0  0  0  0
    6.3930   -5.8620   -1.1520 O   0  0  0  0  0  1  0  0  0  0  0  0
    5.6880   -6.7940   -0.6480 C   0  0  0  0  0  0  0  0  0  0  0  0
    5.3990   -7.8950   -1.2150 O   0  0  0  0  0  0  0  0  0  0  0  0
  1  6  2  0  0  0  0
  1  2  1  0  0  0  0
  2  3  2  0  0  0  0
  3  4  1  0  0  0  0
  4  9  1  0  0  0  0
  5  7  1  0  0  0  0
  5  4  2  0  0  0  0
  6  5  1  0  0  0  0
  7  8  2  0  0  0  0
  8  9  1  0  0  0  0
  8 10  1  0  0  0  0
  9 20  1  0  0  0  0
 10 11  2  0  0  0  0
 10 19  1  0  0  0  0
 11 12  1  0  0  0  0
 12 13  2  0  0  0  0
 13 14  1  0  0  0  0
 14 15  2  0  0  0  0
 16 15  1  0  0  0  0
 17 16  2  0  0  0  0
 18 13  1  0  0  0  0
 18 17  1  0  0  0  0
 19 18  2  0  0  0  0
 20 21  1  0  0  0  0
 21 22  1  0  0  0  0
 23 22  1  0  0  0  0
 24 23  1  0  0  0  0
 25 20  1  0  0  0  0
 25 24  1  0  0  0  0
 26 27  1  0  0  0  0
 27  1  1  0  0  0  0
 28 27  2  0  0  0  0
M  END
>  <minimizedAffinity>
-7.94716454

$$$$
