
 OpenBabel09122222393D

 28 32  0  0  0  0  0  0  0  0999 V2000
    1.8640   -9.6730    6.2760 C   0  0  0  0  0  0  0  0  0  0  0  0
    1.9380   -8.4450    6.9510 C   0  0  0  0  0  3  0  0  0  0  0  0
    2.4940   -7.3010    6.3620 C   0  0  0  0  0  3  0  0  0  0  0  0
    2.9810   -7.4170    5.0540 C   0  0  0  0  0  0  0  0  0  0  0  0
    2.9470   -8.6250    4.3650 C   0  0  0  0  0  0  0  0  0  0  0  0
    2.3810   -9.7590    4.9690 C   0  0  0  0  0  3  0  0  0  0  0  0
    3.5220   -8.4960    3.1270 N   0  0  0  0  0  0  0  0  0  0  0  0
    3.9600   -7.2490    3.0440 C   0  0  0  0  0  0  0  0  0  0  0  0
    3.5440   -6.5260    4.1560 N   0  0  0  0  0  0  0  0  0  0  0  0
    4.7520   -6.7500    1.9090 C   0  0  0  0  0  0  0  0  0  0  0  0
    4.3570   -7.0270    0.6070 C   0  0  0  0  0  3  0  0  0  0  0  0
    5.1470   -6.5730   -0.4430 C   0  0  0  0  0  3  0  0  0  0  0  0
    6.3210   -5.8650   -0.1680 C   0  0  0  0  0  0  0  0  0  0  0  0
    7.1560   -5.3880   -1.1940 C   0  0  0  0  0  3  0  0  0  0  0  0
    8.3220   -4.6910   -0.8860 C   0  0  0  0  0  3  0  0  0  0  0  0
    8.6570   -4.4690    0.4460 C   0  0  0  0  0  3  0  0  0  0  0  0
    7.8250   -4.9460    1.4630 C   0  0  0  0  0  3  0  0  0  0  0  0
    6.6560   -5.6420    1.1840 C   0  0  0  0  0  0  0  0  0  0  0  0
    5.8910   -6.0750    2.2010 N   0  0  0  0  0  0  0  0  0  0  0  0
    3.6300   -5.0780    4.3260 C   0  0  0  0  0  3  0  0  0  0  0  0
    2.2620   -4.3850    4.4740 C   0  0  0  0  0  2  0  0  0  0  0  0
    2.4230   -2.8680    4.5810 C   0  0  0  0  0  2  0  0  0  0  0  0
    3.3760   -2.4830    5.7090 C   0  0  0  0  0  2  0  0  0  0  0  0
    4.7340   -3.1640    5.5590 C   0  0  0  0  0  2  0  0  0  0  0  0
    4.5990   -4.6820    5.4510 C   0  0  0  0  0  2  0  0  0  0  0  0
    1.8160  -12.0070    6.7470 O   0  0  0  0  0  0  0  0  0  0  0  0
    1.2460  -10.8850    6.9430 C   0  0  0  0  0  0  0  0  0  0  0  0
    0.2080  -10.6960    7.6530 O   0  0  0  0  0  1  0  0  0  0  0  0
  1 27  1  0  0  0  0
  1  2  1  0  0  0  0
  3  2  2  0  0  0  0
  4  3  1  0  0  0  0
  5  6  1  0  0  0  0
  5  4  2  0  0  0  0
  6  1  2  0  0  0  0
  7  5  1  0  0  0  0
  8  7  2  0  0  0  0
  8  9  1  0  0  0  0
  9 20  1  0  0  0  0
  9  4  1  0  0  0  0
 10 19  1  0  0  0  0
 10  8  1  0  0  0  0
 11 10  2  0  0  0  0
 12 13  2  0  0  0  0
 12 11  1  0  0  0  0
 13 18  1  0  0  0  0
 14 15  2  0  0  0  0
 14 13  1  0  0  0  0
 15 16  1  0  0  0  0
 16 17  2  0  0  0  0
 18 17  1  0  0  0  0
 18 19  2  0  0  0  0
 20 21  1  0  0  0  0
 20 25  1  0  0  0  0
 21 22  1  0  0  0  0
 22 23  1  0  0  0  0
 24 23  1  0  0  0  0
 25 24  1  0  0  0  0
 26 27  2  0  0  0  0
 27 28  1  0  0  0  0
M  END
>  <minimizedAffinity>
-8.00715256

$$$$
