491166
  -OEChem-09172221553D

 68 73  0     1  0  0  0  0  0999 V2000
    2.4782    2.4831   -2.3444 O   0  0  0  0  0  0  0  0  0  0  0  0
    4.0573   -1.9472   -2.4003 O   0  0  0  0  0  0  0  0  0  0  0  0
    6.0936   -1.1023   -2.9000 O   0  0  0  0  0  0  0  0  0  0  0  0
    1.4110    1.5218    3.2011 O   0  0  0  0  0  0  0  0  0  0  0  0
   -3.0683    0.2564   -0.3150 N   0  0  0  0  0  0  0  0  0  0  0  0
   -1.8147   -1.4827   -0.8923 N   0  0  0  0  0  0  0  0  0  0  0  0
   -4.9132   -2.2006   -1.2800 N   0  0  0  0  0  0  0  0  0  0  0  0
    3.0360    0.3401   -1.6566 N   0  0  0  0  0  0  0  0  0  0  0  0
    5.6825   -1.6135    1.7933 N   0  0  0  0  0  0  0  0  0  0  0  0
   -4.2376    1.0257    0.1298 C   0  0  0  0  0  0  0  0  0  0  0  0
   -3.9854    1.7523    1.4614 C   0  0  0  0  0  0  0  0  0  0  0  0
   -4.7469    1.9909   -0.9536 C   0  0  0  0  0  0  0  0  0  0  0  0
   -5.2246    2.5193    1.9190 C   0  0  0  0  0  0  0  0  0  0  0  0
   -5.9811    2.7564   -0.4801 C   0  0  0  0  0  0  0  0  0  0  0  0
   -5.7251    3.4768    0.8408 C   0  0  0  0  0  0  0  0  0  0  0  0
   -1.8483    0.7828   -0.6476 C   0  0  0  0  0  0  0  0  0  0  0  0
   -3.0005   -1.0979   -0.4765 C   0  0  0  0  0  0  0  0  0  0  0  0
   -1.0823   -0.3234   -1.0051 C   0  0  0  0  0  0  0  0  0  0  0  0
   -1.3619    2.0905   -0.6667 C   0  0  0  0  0  0  0  0  0  0  0  0
   -4.1149   -1.9813   -0.2149 C   0  0  0  0  0  0  0  0  0  0  0  0
    0.2501   -0.1323   -1.4086 C   0  0  0  0  0  0  0  0  0  0  0  0
    0.7597    1.1720   -1.4354 C   0  0  0  0  0  0  0  0  0  0  0  0
   -0.0337    2.2623   -1.0706 C   0  0  0  0  0  0  0  0  0  0  0  0
   -4.3087   -2.5336    1.0371 C   0  0  0  0  0  0  0  0  0  0  0  0
    2.1354    1.3928   -1.8543 C   0  0  0  0  0  0  0  0  0  0  0  0
    4.4384    0.4141   -1.9983 C   0  0  1  0  0  0  0  0  0  0  0  0
    5.2786    0.9111   -0.8134 C   0  0  0  0  0  0  0  0  0  0  0  0
    5.2171    0.0010    0.3807 C   0  0  0  0  0  0  0  0  0  0  0  0
    4.2824    0.0849    1.4299 C   0  0  0  0  0  0  0  0  0  0  0  0
   -5.4030   -3.3740    1.2093 C   0  0  0  0  0  0  0  0  0  0  0  0
    4.5957   -0.9488    2.3150 C   0  0  0  0  0  0  0  0  0  0  0  0
   -5.9667   -3.0227   -1.0745 C   0  0  0  0  0  0  0  0  0  0  0  0
    6.0660   -1.0372    0.6121 C   0  0  0  0  0  0  0  0  0  0  0  0
   -6.2527   -3.6283    0.1384 C   0  0  0  0  0  0  0  0  0  0  0  0
    4.9553   -0.9357   -2.4743 C   0  0  0  0  0  0  0  0  0  0  0  0
    3.1955    0.9296    1.7311 C   0  0  0  0  0  0  0  0  0  0  0  0
    3.8735   -1.1811    3.4910 C   0  0  0  0  0  0  0  0  0  0  0  0
    2.4641    0.7092    2.9038 C   0  0  0  0  0  0  0  0  0  0  0  0
    2.7995   -0.3305    3.7688 C   0  0  0  0  0  0  0  0  0  0  0  0
   -5.0427    0.3040    0.3113 H   0  0  0  0  0  0  0  0  0  0  0  0
   -3.7052    1.0247    2.2334 H   0  0  0  0  0  0  0  0  0  0  0  0
   -3.1518    2.4566    1.3891 H   0  0  0  0  0  0  0  0  0  0  0  0
   -4.9963    1.4296   -1.8628 H   0  0  0  0  0  0  0  0  0  0  0  0
   -3.9814    2.7165   -1.2433 H   0  0  0  0  0  0  0  0  0  0  0  0
   -4.9947    3.0797    2.8324 H   0  0  0  0  0  0  0  0  0  0  0  0
   -6.0203    1.8081    2.1732 H   0  0  0  0  0  0  0  0  0  0  0  0
   -6.8186    2.0582   -0.3586 H   0  0  0  0  0  0  0  0  0  0  0  0
   -6.2802    3.4824   -1.2446 H   0  0  0  0  0  0  0  0  0  0  0  0
   -4.9836    4.2703    0.6854 H   0  0  0  0  0  0  0  0  0  0  0  0
   -6.6470    3.9628    1.1796 H   0  0  0  0  0  0  0  0  0  0  0  0
   -1.9567    2.9509   -0.3886 H   0  0  0  0  0  0  0  0  0  0  0  0
    0.8263   -0.9984   -1.7144 H   0  0  0  0  0  0  0  0  0  0  0  0
    0.3699    3.2726   -1.0891 H   0  0  0  0  0  0  0  0  0  0  0  0
   -3.6403   -2.3281    1.8666 H   0  0  0  0  0  0  0  0  0  0  0  0
    4.5432    1.1090   -2.8398 H   0  0  0  0  0  0  0  0  0  0  0  0
    6.3265    1.0167   -1.1248 H   0  0  0  0  0  0  0  0  0  0  0  0
    4.9465    1.9156   -0.5216 H   0  0  0  0  0  0  0  0  0  0  0  0
    2.7296   -0.5059   -1.1880 H   0  0  0  0  0  0  0  0  0  0  0  0
   -5.5936   -3.8294    2.1763 H   0  0  0  0  0  0  0  0  0  0  0  0
   -6.5987   -3.1882   -1.9407 H   0  0  0  0  0  0  0  0  0  0  0  0
    6.9083   -1.4277    0.0583 H   0  0  0  0  0  0  0  0  0  0  0  0
    6.1319   -2.4112    2.2212 H   0  0  0  0  0  0  0  0  0  0  0  0
   -7.1118   -4.2797    0.2498 H   0  0  0  0  0  0  0  0  0  0  0  0
    2.9285    1.7493    1.0704 H   0  0  0  0  0  0  0  0  0  0  0  0
    4.1339   -1.9904    4.1649 H   0  0  0  0  0  0  0  0  0  0  0  0
    2.2258   -0.4952    4.6780 H   0  0  0  0  0  0  0  0  0  0  0  0
    4.4336   -2.7956   -2.7181 H   0  0  0  0  0  0  0  0  0  0  0  0
    1.0153    1.2317    4.0410 H   0  0  0  0  0  0  0  0  0  0  0  0
  1 25  2  0  0  0  0
  2 35  1  0  0  0  0
  2 67  1  0  0  0  0
  3 35  2  0  0  0  0
  4 38  1  0  0  0  0
  4 68  1  0  0  0  0
  5 10  1  0  0  0  0
  5 16  1  0  0  0  0
  5 17  1  0  0  0  0
  6 17  2  0  0  0  0
  6 18  1  0  0  0  0
  7 20  1  0  0  0  0
  7 32  2  0  0  0  0
  8 25  1  0  0  0  0
  8 26  1  0  0  0  0
  8 58  1  0  0  0  0
  9 31  1  0  0  0  0
  9 33  1  0  0  0  0
  9 62  1  0  0  0  0
 10 11  1  0  0  0  0
 10 12  1  0  0  0  0
 10 40  1  0  0  0  0
 11 13  1  0  0  0  0
 11 41  1  0  0  0  0
 11 42  1  0  0  0  0
 12 14  1  0  0  0  0
 12 43  1  0  0  0  0
 12 44  1  0  0  0  0
 13 15  1  0  0  0  0
 13 45  1  0  0  0  0
 13 46  1  0  0  0  0
 14 15  1  0  0  0  0
 14 47  1  0  0  0  0
 14 48  1  0  0  0  0
 15 49  1  0  0  0  0
 15 50  1  0  0  0  0
 16 18  2  0  0  0  0
 16 19  1  0  0  0  0
 17 20  1  0  0  0  0
 18 21  1  0  0  0  0
 19 23  2  0  0  0  0
 19 51  1  0  0  0  0
 20 24  2  0  0  0  0
 21 22  2  0  0  0  0
 21 52  1  0  0  0  0
 22 23  1  0  0  0  0
 22 25  1  0  0  0  0
 23 53  1  0  0  0  0
 24 30  1  0  0  0  0
 24 54  1  0  0  0  0
 26 27  1  0  0  0  0
 26 35  1  0  0  0  0
 26 55  1  0  0  0  0
 27 28  1  0  0  0  0
 27 56  1  0  0  0  0
 27 57  1  0  0  0  0
 28 29  1  0  0  0  0
 28 33  2  0  0  0  0
 29 31  2  0  0  0  0
 29 36  1  0  0  0  0
 30 34  2  0  0  0  0
 30 59  1  0  0  0  0
 31 37  1  0  0  0  0
 32 34  1  0  0  0  0
 32 60  1  0  0  0  0
 33 61  1  0  0  0  0
 34 63  1  0  0  0  0
 36 38  2  0  0  0  0
 36 64  1  0  0  0  0
 37 39  2  0  0  0  0
 37 65  1  0  0  0  0
 38 39  1  0  0  0  0
 39 66  1  0  0  0  0
M  END
> <PUBCHEM_COMPOUND_CID>
491166

> <PUBCHEM_CONFORMER_RMSD>
1

> <PUBCHEM_CONFORMER_DIVERSEORDER>
1
101
129
141
86
48
154
5
160
135
16
105
72
138
57
106
114
149
30
142
102
4
155
40
147
92
165
88
118
107
79
159
108
74
61
83
21
140
43
94
84
151
26
131
148
152
97
35
75
136
91
24
27
163
127
52
161
32
13
87
25
82
123
12
132
64
95
139
65
55
117
116
70
54
119
62
157
3
11
53
67
125
23
81
100
56
158
103
66
93
122
99
34
126
96
80
41
14
164
28
145
71
115
29
20
120
33
121
42
133
63
9
134
15
39
112
162
110
89
98
10
143
68
6
18
137
78
19
59
144
36
2
130
37
90
60
156
153
111
85
46
38
50
104
49
150
22
73
69
77
45
146
17
31
124
44
109
58
128
76
51
7
113
47
8

> <PUBCHEM_MMFF94_PARTIAL_CHARGES>
48
1 -0.57
10 0.26
16 -0.15
17 0.13
18 0.23
19 -0.15
2 -0.65
20 0.36
21 -0.15
22 0.09
23 -0.15
24 -0.15
25 0.54
26 0.36
27 0.18
28 -0.18
3 -0.57
30 -0.15
31 -0.15
32 0.16
33 -0.3
34 -0.15
35 0.66
36 -0.15
37 -0.15
38 0.08
39 -0.15
4 -0.53
5 0.05
51 0.15
52 0.15
53 0.15
54 0.15
58 0.37
59 0.15
6 -0.57
60 0.15
61 0.15
62 0.27
63 0.15
64 0.15
65 0.15
66 0.15
67 0.5
68 0.45
7 -0.62
8 -0.73
9 0.03

> <PUBCHEM_EFFECTIVE_ROTOR_COUNT>
9.2

> <PUBCHEM_PHARMACOPHORE_FEATURES>
16
1 1 acceptor
1 2 acceptor
1 3 acceptor
1 4 donor
1 7 acceptor
1 8 donor
1 9 cation
1 9 donor
3 2 3 35 anion
3 5 6 17 cation
5 5 6 16 17 18 rings
5 9 28 29 31 33 rings
6 10 11 12 13 14 15 rings
6 16 18 19 21 22 23 rings
6 29 31 36 37 38 39 rings
6 7 20 24 30 32 34 rings

> <PUBCHEM_HEAVY_ATOM_COUNT>
39

> <PUBCHEM_ATOM_DEF_STEREO_COUNT>
1

> <PUBCHEM_ATOM_UDEF_STEREO_COUNT>
0

> <PUBCHEM_BOND_DEF_STEREO_COUNT>
0

> <PUBCHEM_BOND_UDEF_STEREO_COUNT>
0

> <PUBCHEM_ISOTOPIC_ATOM_COUNT>
0

> <PUBCHEM_COMPONENT_COUNT>
1

> <PUBCHEM_CACTVS_TAUTO_COUNT>
16

> <PUBCHEM_CONFORMER_ID>
00077E9E00000001

> <PUBCHEM_MMFF94_ENERGY>
81.673

> <PUBCHEM_FEATURE_SELFOVERLAP>
81.459

> <PUBCHEM_SHAPE_FINGERPRINT>
10319926 262 18130792252527369575
11135926 11 16153717539687649516
11545043 162 18131356318903275613
12128747 34 17345191099697244616
13383661 66 15724491465915096715
13782708 43 17846216691412598759
14118638 360 18263651838385010924
14705955 166 17703794746969468123
15001296 14 18334579044660536148
15537594 2 17603595105716319548
15799311 1 17095249128707626675
20554085 129 18057880252388214409
208703 8 17968082136888636006
21033648 29 17560795528609069420
21703447 108 18046624774787010077
23559900 14 18201445744347097948
244849 19 17418088823776727095
4017518 198 15516673396135975194
44880168 125 18044933476552365438
463206 1 16805326604572133480
508706 21 17632300021439195625
5104073 3 18410863195380703460
6086070 43 17895741981041206533

> <PUBCHEM_SHAPE_MULTIPOLES>
754.22
17.79
3.79
3.49
2.77
1.02
1.96
6.62
-0.28
8.94
0.07
-5.65
0.49
-4.46

> <PUBCHEM_SHAPE_SELFOVERLAP>
1674.423

> <PUBCHEM_SHAPE_VOLUME>
401.1

> <PUBCHEM_COORDINATE_TYPE>
2
5
10

$$$$
