
 OpenBabel09132204463D

 42 47  0  0  1  0  0  0  0  0999 V2000
    3.7970   -6.9170   -0.2810 O   0  0  0  0  0  0  0  0  0  0  0  0
    4.5420   -7.0640    0.6850 C   0  0  0  0  0  0  0  0  0  0  0  0
    4.3470   -8.0500    1.6060 N   0  0  0  0  0  0  0  0  0  0  0  0
    3.6300   -8.7440    1.4000 H   0  0  0  0  0  0  0  0  0  0  0  0
    5.6670   -6.1200    0.8550 C   0  0  0  0  0  0  0  0  0  0  0  0
    6.6310   -6.0400   -0.1550 C   0  0  0  0  0  3  0  0  0  0  0  0
    7.7440   -5.1990   -0.0270 C   0  0  0  0  0  3  0  0  0  0  0  0
    7.8590   -4.4500    1.1550 C   0  0  0  0  0  0  0  0  0  0  0  0
    6.9250   -4.5570    2.1820 C   0  0  0  0  0  0  0  0  0  0  0  0
    5.8160   -5.4020    2.0460 C   0  0  0  0  0  3  0  0  0  0  0  0
    7.2780   -3.7740    3.2440 N   0  0  0  0  0  0  0  0  0  0  0  0
    8.4270   -3.1990    2.9290 C   0  0  0  0  0  0  0  0  0  0  0  0
    8.7720   -3.5180    1.6180 N   0  0  0  0  0  0  0  0  0  0  0  0
    9.1770   -2.3420    3.8600 C   0  0  0  0  0  0  0  0  0  0  0  0
    9.8800   -2.9110    4.9190 C   0  0  0  0  0  3  0  0  0  0  0  0
   10.6160   -2.0820    5.7620 C   0  0  0  0  0  3  0  0  0  0  0  0
   10.6400   -0.7160    5.5160 C   0  0  0  0  0  3  0  0  0  0  0  0
    9.9240   -0.2330    4.4330 C   0  0  0  0  0  3  0  0  0  0  0  0
    9.1950   -1.0100    3.6010 N   0  0  0  0  0  0  0  0  0  0  0  0
    9.8790   -2.9430    0.8570 C   0  0  0  0  0  3  0  0  0  0  0  0
   10.5120   -3.9640   -0.0990 C   0  0  0  0  0  2  0  0  0  0  0  0
   11.7190   -3.3720   -0.8260 C   0  0  0  0  0  2  0  0  0  0  0  0
   11.3680   -2.0680   -1.5370 C   0  0  0  0  0  2  0  0  0  0  0  0
   10.7500   -1.0510   -0.5800 C   0  0  0  0  0  2  0  0  0  0  0  0
    9.5300   -1.6250    0.1400 C   0  0  0  0  0  2  0  0  0  0  0  0
    4.9450   -8.2680    2.9490 C   0  0  2  0  0  3  0  0  0  0  0  0
    6.2580   -9.1100    2.9140 C   0  0  0  0  0  0  0  0  0  0  0  0
    6.1330  -10.3260    3.2420 O   0  0  0  0  0  1  0  0  0  0  0  0
    7.3040   -8.4530    2.6260 O   0  0  0  0  0  0  0  0  0  0  0  0
    3.9660   -8.9090    3.9480 C   0  0  0  0  0  2  0  0  0  0  0  0
    2.9570   -7.9760    4.5630 C   0  0  0  0  0  0  0  0  0  0  0  0
    3.2080   -6.7200    5.0820 C   0  0  0  0  0  3  0  0  0  0  0  0
    2.0270   -6.1870    5.5130 N   0  0  0  0  0  0  0  0  0  0  0  0
    1.0030   -7.0870    5.3410 C   0  0  0  0  0  0  0  0  0  0  0  0
   -0.3580   -6.9770    5.6530 C   0  0  0  0  0  3  0  0  0  0  0  0
   -1.1850   -8.0610    5.3420 C   0  0  0  0  0  3  0  0  0  0  0  0
   -0.6580   -9.1980    4.7380 C   0  0  0  0  0  0  0  0  0  0  0  0
    0.6990   -9.2980    4.4280 C   0  0  0  0  0  3  0  0  0  0  0  0
    1.5540   -8.2190    4.7380 C   0  0  0  0  0  0  0  0  0  0  0  0
    1.9170   -5.2570    5.8900 H   0  0  0  0  0  0  0  0  0  0  0  0
   -1.4640  -10.2570    4.4270 O   0  0  0  0  0  0  0  0  0  0  0  0
   -2.3730   -9.9270    4.3710 H   0  0  0  0  0  0  0  0  0  0  0  0
  1  2  2  0  0  0  0
  2  5  1  0  0  0  0
  2  3  1  0  0  0  0
  3 26  1  0  0  0  0
  4  3  1  0  0  0  0
  5 10  1  0  0  0  0
  6  7  1  0  0  0  0
  6  5  2  0  0  0  0
  7  8  2  0  0  0  0
  8 13  1  0  0  0  0
  8  9  1  0  0  0  0
  9 11  1  0  0  0  0
 10  9  2  0  0  0  0
 12 11  2  0  0  0  0
 12 14  1  0  0  0  0
 13 12  1  0  0  0  0
 14 15  1  0  0  0  0
 15 16  2  0  0  0  0
 17 16  1  0  0  0  0
 18 17  2  0  0  0  0
 19 14  2  0  0  0  0
 19 18  1  0  0  0  0
 20 13  1  0  0  0  0
 21 20  1  0  0  0  0
 22 21  1  0  0  0  0
 23 22  1  0  0  0  0
 23 24  1  0  0  0  0
 24 25  1  0  0  0  0
 25 20  1  0  0  0  0
 26 30  1  1  0  0  0
 27 26  1  0  0  0  0
 27 28  1  0  0  0  0
 29 27  2  0  0  0  0
 30 31  1  0  0  0  0
 31 39  1  0  0  0  0
 31 32  2  0  0  0  0
 32 33  1  0  0  0  0
 33 40  1  0  0  0  0
 34 33  1  0  0  0  0
 34 35  1  0  0  0  0
 36 35  2  0  0  0  0
 37 36  1  0  0  0  0
 38 37  2  0  0  0  0
 38 39  1  0  0  0  0
 39 34  2  0  0  0  0
 41 37  1  0  0  0  0
 42 41  1  0  0  0  0
M  END
>  <minimizedAffinity>
-8.75622177

$$$$
