
 OpenBabel09132204463D

 42 47  0  0  1  0  0  0  0  0999 V2000
   10.2200   -0.7090   -3.0890 O   0  0  0  0  0  0  0  0  0  0  0  0
   10.4420   -0.9500   -1.9040 C   0  0  0  0  0  0  0  0  0  0  0  0
   10.6310   -2.2200   -1.4470 N   0  0  0  0  0  0  0  0  0  0  0  0
   10.7040   -2.9600   -2.1440 H   0  0  0  0  0  0  0  0  0  0  0  0
   10.4810    0.1810   -0.9530 C   0  0  0  0  0  0  0  0  0  0  0  0
   11.0380    1.3910   -1.3750 C   0  0  0  0  0  3  0  0  0  0  0  0
   11.1450    2.4820   -0.5020 C   0  0  0  0  0  3  0  0  0  0  0  0
   10.6820    2.3090    0.8110 C   0  0  0  0  0  0  0  0  0  0  0  0
   10.1650    1.0930    1.2510 C   0  0  0  0  0  0  0  0  0  0  0  0
   10.0630    0.0080    0.3710 C   0  0  0  0  0  3  0  0  0  0  0  0
    9.8300    1.1550    2.5730 N   0  0  0  0  0  0  0  0  0  0  0  0
   10.1520    2.3690    2.9910 C   0  0  0  0  0  0  0  0  0  0  0  0
   10.5950    3.1370    1.9180 N   0  0  0  0  0  0  0  0  0  0  0  0
   10.0230    2.7950    4.3930 C   0  0  0  0  0  0  0  0  0  0  0  0
   10.1530    4.1400    4.7290 C   0  0  0  0  0  3  0  0  0  0  0  0
    9.9850    4.5220    6.0570 C   0  0  0  0  0  3  0  0  0  0  0  0
    9.6790    3.5560    7.0060 C   0  0  0  0  0  3  0  0  0  0  0  0
    9.5540    2.2420    6.5860 C   0  0  0  0  0  3  0  0  0  0  0  0
    9.7170    1.8390    5.3070 N   0  0  0  0  0  0  0  0  0  0  0  0
   10.8800    4.5700    1.9470 C   0  0  0  0  0  3  0  0  0  0  0  0
   12.3860    4.8590    1.8620 C   0  0  0  0  0  2  0  0  0  0  0  0
   12.6720    6.3560    1.9760 C   0  0  0  0  0  2  0  0  0  0  0  0
   11.8780    7.1650    0.9550 C   0  0  0  0  0  2  0  0  0  0  0  0
   10.3810    6.8830    1.0510 C   0  0  0  0  0  2  0  0  0  0  0  0
   10.0790    5.3900    0.9180 C   0  0  0  0  0  2  0  0  0  0  0  0
   10.6660   -2.7690   -0.0660 C   0  0  2  0  0  3  0  0  0  0  0  0
   12.0890   -3.2220    0.3850 C   0  0  0  0  0  0  0  0  0  0  0  0
   12.2380   -3.3840    1.6310 O   0  0  0  0  0  1  0  0  0  0  0  0
   12.9430   -3.3040   -0.5500 O   0  0  0  0  0  0  0  0  0  0  0  0
    9.6810   -3.9310    0.1460 C   0  0  0  0  0  2  0  0  0  0  0  0
    8.6900   -3.7510    1.2660 C   0  0  0  0  0  0  0  0  0  0  0  0
    8.7300   -2.7830    2.2520 C   0  0  0  0  0  3  0  0  0  0  0  0
    7.6370   -2.9380    3.0550 N   0  0  0  0  0  0  0  0  0  0  0  0
    6.8980   -4.0260    2.6550 C   0  0  0  0  0  0  0  0  0  0  0  0
    5.7210   -4.5650    3.1890 C   0  0  0  0  0  3  0  0  0  0  0  0
    5.1710   -5.6810    2.5530 C   0  0  0  0  0  3  0  0  0  0  0  0
    5.7820   -6.2220    1.4260 C   0  0  0  0  0  0  0  0  0  0  0  0
    6.9530   -5.6770    0.8980 C   0  0  0  0  0  3  0  0  0  0  0  0
    7.5300   -4.5530    1.5270 C   0  0  0  0  0  0  0  0  0  0  0  0
    7.3950   -2.3320    3.8240 H   0  0  0  0  0  0  0  0  0  0  0  0
    5.2430   -7.3090    0.7980 O   0  0  0  0  0  0  0  0  0  0  0  0
    4.3060   -7.3530    1.0390 H   0  0  0  0  0  0  0  0  0  0  0  0
  1  2  2  0  0  0  0
  2  3  1  0  0  0  0
  2  5  1  0  0  0  0
  3 26  1  0  0  0  0
  4  3  1  0  0  0  0
  5 10  1  0  0  0  0
  6  5  2  0  0  0  0
  6  7  1  0  0  0  0
  7  8  2  0  0  0  0
  8  9  1  0  0  0  0
  8 13  1  0  0  0  0
  9 11  1  0  0  0  0
 10  9  2  0  0  0  0
 11 12  2  0  0  0  0
 12 14  1  0  0  0  0
 13 20  1  0  0  0  0
 13 12  1  0  0  0  0
 14 15  2  0  0  0  0
 14 19  1  0  0  0  0
 15 16  1  0  0  0  0
 16 17  2  0  0  0  0
 18 17  1  0  0  0  0
 19 18  2  0  0  0  0
 21 20  1  0  0  0  0
 21 22  1  0  0  0  0
 23 24  1  0  0  0  0
 23 22  1  0  0  0  0
 25 24  1  0  0  0  0
 25 20  1  0  0  0  0
 26 30  1  6  0  0  0
 26 27  1  0  0  0  0
 27 28  1  0  0  0  0
 29 27  2  0  0  0  0
 30 31  1  0  0  0  0
 31 39  1  0  0  0  0
 31 32  2  0  0  0  0
 32 33  1  0  0  0  0
 33 40  1  0  0  0  0
 34 33  1  0  0  0  0
 34 35  1  0  0  0  0
 36 35  2  0  0  0  0
 37 36  1  0  0  0  0
 38 37  2  0  0  0  0
 38 39  1  0  0  0  0
 39 34  2  0  0  0  0
 41 42  1  0  0  0  0
 41 37  1  0  0  0  0
M  END
>  <minimizedAffinity>
-8.15448761

$$$$
