
 OpenBabel09132204463D

 42 47  0  0  1  0  0  0  0  0999 V2000
   10.1040   -0.0120   -2.8460 O   0  0  0  0  0  0  0  0  0  0  0  0
   10.2950   -0.5810   -1.7740 C   0  0  0  0  0  0  0  0  0  0  0  0
   10.4670   -1.9300   -1.6920 N   0  0  0  0  0  0  0  0  0  0  0  0
   10.5530   -2.4430   -2.5670 H   0  0  0  0  0  0  0  0  0  0  0  0
   10.3150    0.2340   -0.5410 C   0  0  0  0  0  0  0  0  0  0  0  0
    9.6490   -0.2470    0.5900 C   0  0  0  0  0  3  0  0  0  0  0  0
    9.5940    0.5040    1.7710 C   0  0  0  0  0  3  0  0  0  0  0  0
   10.2230    1.7580    1.7720 C   0  0  0  0  0  0  0  0  0  0  0  0
   10.8520    2.2620    0.6370 C   0  0  0  0  0  0  0  0  0  0  0  0
   10.9000    1.5050   -0.5400 C   0  0  0  0  0  3  0  0  0  0  0  0
   11.3420    3.5160    0.8680 N   0  0  0  0  0  0  0  0  0  0  0  0
   11.0120    3.8320    2.1100 C   0  0  0  0  0  0  0  0  0  0  0  0
   10.4020    2.7450    2.7280 N   0  0  0  0  0  0  0  0  0  0  0  0
   11.2900    5.1490    2.7020 C   0  0  0  0  0  0  0  0  0  0  0  0
   12.4640    5.3570    3.4230 C   0  0  0  0  0  3  0  0  0  0  0  0
   12.7240    6.6230    3.9380 C   0  0  0  0  0  3  0  0  0  0  0  0
   11.8140    7.6470    3.7090 C   0  0  0  0  0  3  0  0  0  0  0  0
   10.6780    7.3600    2.9700 C   0  0  0  0  0  3  0  0  0  0  0  0
   10.3940    6.1400    2.4630 N   0  0  0  0  0  0  0  0  0  0  0  0
   10.0490    2.6480    4.1430 C   0  0  0  0  0  3  0  0  0  0  0  0
   11.0910    1.8540    4.9440 C   0  0  0  0  0  2  0  0  0  0  0  0
   10.6660    1.6920    6.4030 C   0  0  0  0  0  2  0  0  0  0  0  0
   10.3500    3.0350    7.0540 C   0  0  0  0  0  2  0  0  0  0  0  0
    9.3050    3.8170    6.2610 C   0  0  0  0  0  2  0  0  0  0  0  0
    9.7270    4.0020    4.8030 C   0  0  0  0  0  2  0  0  0  0  0  0
   10.4640   -2.8490   -0.5220 C   0  0  2  0  0  3  0  0  0  0  0  0
   11.8850   -3.3650   -0.1380 C   0  0  0  0  0  0  0  0  0  0  0  0
   12.1380   -3.3850    1.1020 O   0  0  0  0  0  1  0  0  0  0  0  0
   12.6380   -3.6360   -1.1220 O   0  0  0  0  0  0  0  0  0  0  0  0
    9.5260   -4.0530   -0.7040 C   0  0  0  0  0  2  0  0  0  0  0  0
    8.5500   -4.2960    0.4160 C   0  0  0  0  0  0  0  0  0  0  0  0
    8.5790   -3.7180    1.6720 C   0  0  0  0  0  3  0  0  0  0  0  0
    7.5040   -4.1720    2.3810 N   0  0  0  0  0  0  0  0  0  0  0  0
    6.7900   -5.0840    1.6410 C   0  0  0  0  0  0  0  0  0  0  0  0
    5.6380   -5.8100    1.9680 C   0  0  0  0  0  3  0  0  0  0  0  0
    5.1090   -6.6620    0.9950 C   0  0  0  0  0  3  0  0  0  0  0  0
    5.7170   -6.7690   -0.2530 C   0  0  0  0  0  0  0  0  0  0  0  0
    6.8630   -6.0400   -0.5720 C   0  0  0  0  0  3  0  0  0  0  0  0
    7.4180   -5.1770    0.3970 C   0  0  0  0  0  0  0  0  0  0  0  0
    7.2580   -3.8700    3.3120 H   0  0  0  0  0  0  0  0  0  0  0  0
    5.1990   -7.5970   -1.2090 O   0  0  0  0  0  0  0  0  0  0  0  0
    4.2680   -7.7510   -0.9910 H   0  0  0  0  0  0  0  0  0  0  0  0
  1  2  2  0  0  0  0
  2  3  1  0  0  0  0
  2  5  1  0  0  0  0
  3 26  1  0  0  0  0
  4  3  1  0  0  0  0
  5 10  2  0  0  0  0
  5  6  1  0  0  0  0
  6  7  2  0  0  0  0
  7  8  1  0  0  0  0
  8 13  1  0  0  0  0
  9 11  1  0  0  0  0
  9  8  2  0  0  0  0
 10  9  1  0  0  0  0
 11 12  2  0  0  0  0
 12 14  1  0  0  0  0
 12 13  1  0  0  0  0
 13 20  1  0  0  0  0
 14 15  1  0  0  0  0
 15 16  2  0  0  0  0
 17 16  1  0  0  0  0
 18 17  2  0  0  0  0
 19 14  2  0  0  0  0
 19 18  1  0  0  0  0
 20 25  1  0  0  0  0
 20 21  1  0  0  0  0
 21 22  1  0  0  0  0
 22 23  1  0  0  0  0
 24 23  1  0  0  0  0
 25 24  1  0  0  0  0
 26 30  1  6  0  0  0
 26 27  1  0  0  0  0
 27 28  1  0  0  0  0
 29 27  2  0  0  0  0
 30 31  1  0  0  0  0
 31 32  2  0  0  0  0
 32 33  1  0  0  0  0
 33 40  1  0  0  0  0
 34 35  1  0  0  0  0
 34 33  1  0  0  0  0
 36 35  2  0  0  0  0
 37 36  1  0  0  0  0
 38 37  2  0  0  0  0
 38 39  1  0  0  0  0
 39 31  1  0  0  0  0
 39 34  2  0  0  0  0
 41 42  1  0  0  0  0
 41 37  1  0  0  0  0
M  END
>  <minimizedAffinity>
-7.92982769

$$$$
