
 OpenBabel09132204463D

 42 47  0  0  1  0  0  0  0  0999 V2000
    7.7170   -4.9650   -1.4230 O   0  0  0  0  0  0  0  0  0  0  0  0
    7.8970   -4.8780   -0.2100 C   0  0  0  0  0  0  0  0  0  0  0  0
    8.6790   -3.9050    0.3370 N   0  0  0  0  0  0  0  0  0  0  0  0
    9.0150   -3.1720   -0.2860 H   0  0  0  0  0  0  0  0  0  0  0  0
    7.2570   -5.8800    0.6680 C   0  0  0  0  0  0  0  0  0  0  0  0
    7.9350   -7.0760    0.9230 C   0  0  0  0  0  3  0  0  0  0  0  0
    7.3560   -8.0810    1.7080 C   0  0  0  0  0  3  0  0  0  0  0  0
    6.0700   -7.8460    2.2200 C   0  0  0  0  0  0  0  0  0  0  0  0
    5.3730   -6.6750    1.9350 C   0  0  0  0  0  0  0  0  0  0  0  0
    5.9590   -5.6760    1.1470 C   0  0  0  0  0  3  0  0  0  0  0  0
    4.1290   -6.6990    2.5000 N   0  0  0  0  0  0  0  0  0  0  0  0
    4.0090   -7.8690    3.1070 C   0  0  0  0  0  0  0  0  0  0  0  0
    5.2120   -8.5660    3.0350 N   0  0  0  0  0  0  0  0  0  0  0  0
    2.7680   -8.3080    3.7620 C   0  0  0  0  0  0  0  0  0  0  0  0
    2.0550   -9.3910    3.2530 C   0  0  0  0  0  3  0  0  0  0  0  0
    0.9060   -9.8130    3.9150 C   0  0  0  0  0  3  0  0  0  0  0  0
    0.5090   -9.1530    5.0700 C   0  0  0  0  0  3  0  0  0  0  0  0
    1.2820   -8.0940    5.5170 C   0  0  0  0  0  3  0  0  0  0  0  0
    2.3980   -7.6570    4.8930 N   0  0  0  0  0  0  0  0  0  0  0  0
    5.5250   -9.8150    3.7270 C   0  0  0  0  0  3  0  0  0  0  0  0
    5.1190   -9.7710    5.2070 C   0  0  0  0  0  2  0  0  0  0  0  0
    5.5280  -11.0510    5.9340 C   0  0  0  0  0  2  0  0  0  0  0  0
    4.9910  -12.2960    5.2330 C   0  0  0  0  0  2  0  0  0  0  0  0
    5.4070  -12.3420    3.7640 C   0  0  0  0  0  2  0  0  0  0  0  0
    4.9870  -11.0740    3.0210 C   0  0  0  0  0  2  0  0  0  0  0  0
    9.2320   -3.7480    1.7080 C   0  0  2  0  0  3  0  0  0  0  0  0
    8.2850   -2.9690    2.6720 C   0  0  0  0  0  0  0  0  0  0  0  0
    8.3150   -1.7080    2.5620 O   0  0  0  0  0  0  0  0  0  0  0  0
    7.6520   -3.6940    3.4990 O   0  0  0  0  0  1  0  0  0  0  0  0
   10.6200   -3.0860    1.7260 C   0  0  0  0  0  2  0  0  0  0  0  0
   11.3330   -3.0290    0.4020 C   0  0  0  0  0  0  0  0  0  0  0  0
   12.2090   -3.9720   -0.1020 C   0  0  0  0  0  3  0  0  0  0  0  0
   12.6130   -3.5680   -1.3430 N   0  0  0  0  0  0  0  0  0  0  0  0
   12.0660   -2.3450   -1.6510 C   0  0  0  0  0  0  0  0  0  0  0  0
   12.2150   -1.5510   -2.7950 C   0  0  0  0  0  3  0  0  0  0  0  0
   11.5100   -0.3450   -2.8450 C   0  0  0  0  0  3  0  0  0  0  0  0
   10.6880    0.0340   -1.7880 C   0  0  0  0  0  0  0  0  0  0  0  0
   10.5420   -0.7650   -0.6530 C   0  0  0  0  0  3  0  0  0  0  0  0
   11.2490   -1.9840   -0.5770 C   0  0  0  0  0  0  0  0  0  0  0  0
   13.2160   -4.0970   -1.9540 H   0  0  0  0  0  0  0  0  0  0  0  0
    9.9920    1.2090   -1.8350 O   0  0  0  0  0  0  0  0  0  0  0  0
    9.9120    1.4650   -2.7660 H   0  0  0  0  0  0  0  0  0  0  0  0
  1  2  2  0  0  0  0
  2  3  1  0  0  0  0
  2  5  1  0  0  0  0
  3 26  1  0  0  0  0
  4  3  1  0  0  0  0
  5  6  2  0  0  0  0
  5 10  1  0  0  0  0
  6  7  1  0  0  0  0
  7  8  2  0  0  0  0
  8 13  1  0  0  0  0
  9  8  1  0  0  0  0
  9 11  1  0  0  0  0
 10  9  2  0  0  0  0
 11 12  2  0  0  0  0
 12 14  1  0  0  0  0
 13 12  1  0  0  0  0
 13 20  1  0  0  0  0
 14 19  1  0  0  0  0
 15 14  2  0  0  0  0
 15 16  1  0  0  0  0
 16 17  2  0  0  0  0
 17 18  1  0  0  0  0
 19 18  2  0  0  0  0
 20 21  1  0  0  0  0
 21 22  1  0  0  0  0
 23 22  1  0  0  0  0
 24 23  1  0  0  0  0
 25 20  1  0  0  0  0
 25 24  1  0  0  0  0
 26 30  1  6  0  0  0
 26 27  1  0  0  0  0
 27 29  1  0  0  0  0
 28 27  2  0  0  0  0
 31 30  1  0  0  0  0
 32 31  2  0  0  0  0
 33 32  1  0  0  0  0
 34 33  1  0  0  0  0
 34 39  1  0  0  0  0
 35 34  2  0  0  0  0
 36 35  1  0  0  0  0
 36 37  2  0  0  0  0
 37 38  1  0  0  0  0
 38 39  2  0  0  0  0
 39 31  1  0  0  0  0
 40 33  1  0  0  0  0
 41 37  1  0  0  0  0
 42 41  1  0  0  0  0
M  END
>  <minimizedAffinity>
-8.77837372

$$$$
