
 OpenBabel09132204463D

 42 47  0  0  1  0  0  0  0  0999 V2000
    4.7880   -7.3740   -1.1690 O   0  0  0  0  0  0  0  0  0  0  0  0
    5.2040   -7.2870   -0.0160 C   0  0  0  0  0  0  0  0  0  0  0  0
    4.7170   -8.0690    0.9890 N   0  0  0  0  0  0  0  0  0  0  0  0
    4.0790   -8.8190    0.7290 H   0  0  0  0  0  0  0  0  0  0  0  0
    6.2480   -6.2840    0.2800 C   0  0  0  0  0  0  0  0  0  0  0  0
    6.1930   -5.6010    1.4990 C   0  0  0  0  0  3  0  0  0  0  0  0
    7.1270   -4.6050    1.8130 C   0  0  0  0  0  3  0  0  0  0  0  0
    8.1110   -4.3140    0.8550 C   0  0  0  0  0  0  0  0  0  0  0  0
    8.1460   -4.9600   -0.3780 C   0  0  0  0  0  0  0  0  0  0  0  0
    7.2060   -5.9530   -0.6830 C   0  0  0  0  0  3  0  0  0  0  0  0
    9.1570   -4.4720   -1.1550 N   0  0  0  0  0  0  0  0  0  0  0  0
    9.7430   -3.5100   -0.4590 C   0  0  0  0  0  0  0  0  0  0  0  0
    9.1880   -3.4440    0.8160 N   0  0  0  0  0  0  0  0  0  0  0  0
   10.8300   -2.6790   -0.9980 C   0  0  0  0  0  0  0  0  0  0  0  0
   12.1140   -3.2040   -1.1230 C   0  0  0  0  0  3  0  0  0  0  0  0
   13.1160   -2.4110   -1.6750 C   0  0  0  0  0  3  0  0  0  0  0  0
   12.8060   -1.1250   -2.0970 C   0  0  0  0  0  3  0  0  0  0  0  0
   11.5010   -0.6850   -1.9500 C   0  0  0  0  0  3  0  0  0  0  0  0
   10.5090   -1.4280   -1.4120 N   0  0  0  0  0  0  0  0  0  0  0  0
    9.6780   -2.6280    1.9250 C   0  0  0  0  0  3  0  0  0  0  0  0
    8.9730   -1.2660    1.9930 C   0  0  0  0  0  2  0  0  0  0  0  0
    9.5540   -0.3940    3.1050 C   0  0  0  0  0  2  0  0  0  0  0  0
    9.5410   -1.1110    4.4530 C   0  0  0  0  0  2  0  0  0  0  0  0
   10.2530   -2.4590    4.3830 C   0  0  0  0  0  2  0  0  0  0  0  0
    9.6680   -3.3490    3.2860 C   0  0  0  0  0  2  0  0  0  0  0  0
    4.8770   -7.9790    2.4650 C   0  0  2  0  0  3  0  0  0  0  0  0
    5.8950   -9.0120    3.0410 C   0  0  0  0  0  0  0  0  0  0  0  0
    5.3860  -10.0690    3.5170 O   0  0  0  0  0  1  0  0  0  0  0  0
    7.1060   -8.6340    3.0240 O   0  0  0  0  0  0  0  0  0  0  0  0
    3.5470   -8.1100    3.2240 C   0  0  0  0  0  2  0  0  0  0  0  0
    3.4250   -7.2810    4.4750 C   0  0  0  0  0  0  0  0  0  0  0  0
    3.2350   -7.7550    5.7600 C   0  0  0  0  0  3  0  0  0  0  0  0
    3.2110   -6.6890    6.6140 N   0  0  0  0  0  0  0  0  0  0  0  0
    3.3250   -5.5110    5.9150 C   0  0  0  0  0  0  0  0  0  0  0  0
    3.3300   -4.1870    6.3710 C   0  0  0  0  0  3  0  0  0  0  0  0
    3.4860   -3.1740    5.4210 C   0  0  0  0  0  3  0  0  0  0  0  0
    3.6350   -3.4890    4.0730 C   0  0  0  0  0  0  0  0  0  0  0  0
    3.6310   -4.8110    3.6280 C   0  0  0  0  0  3  0  0  0  0  0  0
    3.4690   -5.8510    4.5680 C   0  0  0  0  0  0  0  0  0  0  0  0
    3.1350   -6.7560    7.6180 H   0  0  0  0  0  0  0  0  0  0  0  0
    3.7930   -2.5010    3.1420 O   0  0  0  0  0  0  0  0  0  0  0  0
    4.1170   -1.7130    3.6030 H   0  0  0  0  0  0  0  0  0  0  0  0
  1  2  2  0  0  0  0
  2  5  1  0  0  0  0
  2  3  1  0  0  0  0
  3 26  1  0  0  0  0
  4  3  1  0  0  0  0
  5  6  1  0  0  0  0
  6  7  2  0  0  0  0
  8  7  1  0  0  0  0
  9  8  2  0  0  0  0
 10  9  1  0  0  0  0
 10  5  2  0  0  0  0
 11 12  2  0  0  0  0
 11  9  1  0  0  0  0
 12 13  1  0  0  0  0
 13  8  1  0  0  0  0
 13 20  1  0  0  0  0
 14 12  1  0  0  0  0
 15 14  1  0  0  0  0
 16 15  2  0  0  0  0
 17 18  2  0  0  0  0
 17 16  1  0  0  0  0
 18 19  1  0  0  0  0
 19 14  2  0  0  0  0
 20 21  1  0  0  0  0
 20 25  1  0  0  0  0
 21 22  1  0  0  0  0
 22 23  1  0  0  0  0
 24 23  1  0  0  0  0
 25 24  1  0  0  0  0
 26 27  1  0  0  0  0
 26 30  1  1  0  0  0
 27 28  1  0  0  0  0
 29 27  2  0  0  0  0
 30 31  1  0  0  0  0
 31 39  1  0  0  0  0
 31 32  2  0  0  0  0
 32 33  1  0  0  0  0
 33 40  1  0  0  0  0
 34 35  1  0  0  0  0
 34 33  1  0  0  0  0
 36 35  2  0  0  0  0
 37 36  1  0  0  0  0
 38 37  2  0  0  0  0
 38 39  1  0  0  0  0
 39 34  2  0  0  0  0
 41 42  1  0  0  0  0
 41 37  1  0  0  0  0
M  END
>  <minimizedAffinity>
-10.3647528

$$$$
