
 OpenBabel09132204463D

 42 47  0  0  1  0  0  0  0  0999 V2000
    4.5440   -7.4440   -0.3310 O   0  0  0  0  0  0  0  0  0  0  0  0
    4.8440   -7.0680    0.8000 C   0  0  0  0  0  0  0  0  0  0  0  0
    4.1660   -7.4880    1.9050 N   0  0  0  0  0  0  0  0  0  0  0  0
    3.4750   -8.2250    1.7760 H   0  0  0  0  0  0  0  0  0  0  0  0
    5.9620   -6.1130    0.9490 C   0  0  0  0  0  0  0  0  0  0  0  0
    5.9720   -5.2620    2.0590 C   0  0  0  0  0  3  0  0  0  0  0  0
    6.9800   -4.3040    2.2260 C   0  0  0  0  0  3  0  0  0  0  0  0
    7.9710   -4.2250    1.2350 C   0  0  0  0  0  0  0  0  0  0  0  0
    7.9440   -5.0400    0.1070 C   0  0  0  0  0  0  0  0  0  0  0  0
    6.9310   -5.9940   -0.0530 C   0  0  0  0  0  3  0  0  0  0  0  0
    8.9790   -4.7440   -0.7330 N   0  0  0  0  0  0  0  0  0  0  0  0
    9.6420   -3.7400   -0.1820 C   0  0  0  0  0  0  0  0  0  0  0  0
    9.1090   -3.4520    1.0710 N   0  0  0  0  0  0  0  0  0  0  0  0
   10.7810   -3.0760   -0.8350 C   0  0  0  0  0  0  0  0  0  0  0  0
   10.7130   -1.7210   -1.1490 C   0  0  0  0  0  3  0  0  0  0  0  0
   11.8190   -1.1070   -1.7290 C   0  0  0  0  0  3  0  0  0  0  0  0
   12.9630   -1.8570   -1.9660 C   0  0  0  0  0  3  0  0  0  0  0  0
   12.9530   -3.1960   -1.6120 C   0  0  0  0  0  3  0  0  0  0  0  0
   11.8930   -3.8220   -1.0530 N   0  0  0  0  0  0  0  0  0  0  0  0
    9.6710   -2.5260    2.0520 C   0  0  0  0  0  3  0  0  0  0  0  0
    8.9520   -1.1690    2.0410 C   0  0  0  0  0  2  0  0  0  0  0  0
    9.6040   -0.1860    3.0130 C   0  0  0  0  0  2  0  0  0  0  0  0
    9.7060   -0.7650    4.4210 C   0  0  0  0  0  2  0  0  0  0  0  0
   10.4310   -2.1090    4.4290 C   0  0  0  0  0  2  0  0  0  0  0  0
    9.7770   -3.1080    3.4740 C   0  0  0  0  0  2  0  0  0  0  0  0
    4.1800   -6.9970    3.3090 C   0  0  2  0  0  3  0  0  0  0  0  0
    3.7560   -8.0810    4.3480 C   0  0  0  0  0  0  0  0  0  0  0  0
    2.5270   -8.0930    4.6490 O   0  0  0  0  0  0  0  0  0  0  0  0
    4.7110   -8.7730    4.8160 O   0  0  0  0  0  1  0  0  0  0  0  0
    3.3190   -5.7410    3.5160 C   0  0  0  0  0  2  0  0  0  0  0  0
    3.6830   -4.8890    4.7030 C   0  0  0  0  0  0  0  0  0  0  0  0
    4.6880   -5.1390    5.6190 C   0  0  0  0  0  3  0  0  0  0  0  0
    4.7160   -4.1150    6.5210 N   0  0  0  0  0  0  0  0  0  0  0  0
    3.7130   -3.2140    6.2560 C   0  0  0  0  0  0  0  0  0  0  0  0
    3.3580   -2.0340    6.9230 C   0  0  0  0  0  3  0  0  0  0  0  0
    2.2900   -1.2940    6.4080 C   0  0  0  0  0  3  0  0  0  0  0  0
    1.6170   -1.7260    5.2690 C   0  0  0  0  0  0  0  0  0  0  0  0
    1.9790   -2.9010    4.6100 C   0  0  0  0  0  3  0  0  0  0  0  0
    3.0500   -3.6680    5.1130 C   0  0  0  0  0  0  0  0  0  0  0  0
    5.3880   -4.0220    7.2680 H   0  0  0  0  0  0  0  0  0  0  0  0
    0.5760   -1.0010    4.7600 O   0  0  0  0  0  0  0  0  0  0  0  0
    0.6660   -0.0920    5.0830 H   0  0  0  0  0  0  0  0  0  0  0  0
  1  2  2  0  0  0  0
  2  5  1  0  0  0  0
  2  3  1  0  0  0  0
  3 26  1  0  0  0  0
  4  3  1  0  0  0  0
  5  6  1  0  0  0  0
  6  7  2  0  0  0  0
  8  7  1  0  0  0  0
  9  8  2  0  0  0  0
 10  9  1  0  0  0  0
 10  5  2  0  0  0  0
 11 12  2  0  0  0  0
 11  9  1  0  0  0  0
 12 13  1  0  0  0  0
 13  8  1  0  0  0  0
 13 20  1  0  0  0  0
 14 12  1  0  0  0  0
 15 14  2  0  0  0  0
 16 15  1  0  0  0  0
 17 16  2  0  0  0  0
 17 18  1  0  0  0  0
 18 19  2  0  0  0  0
 19 14  1  0  0  0  0
 20 25  1  0  0  0  0
 21 20  1  0  0  0  0
 21 22  1  0  0  0  0
 22 23  1  0  0  0  0
 23 24  1  0  0  0  0
 25 24  1  0  0  0  0
 26 30  1  6  0  0  0
 26 27  1  0  0  0  0
 27 28  2  0  0  0  0
 27 29  1  0  0  0  0
 30 31  1  0  0  0  0
 31 39  1  0  0  0  0
 31 32  2  0  0  0  0
 32 33  1  0  0  0  0
 33 40  1  0  0  0  0
 34 33  1  0  0  0  0
 34 35  1  0  0  0  0
 36 35  2  0  0  0  0
 37 36  1  0  0  0  0
 38 39  1  0  0  0  0
 38 37  2  0  0  0  0
 39 34  2  0  0  0  0
 41 42  1  0  0  0  0
 41 37  1  0  0  0  0
M  END
>  <minimizedAffinity>
-9.2132864

$$$$
