
 OpenBabel09122222393D

 39 44  0  0  0  0  0  0  0  0999 V2000
    4.7140   -7.4530    2.2790 C   0  0  0  0  0  0  0  0  0  0  0  0
    4.2630   -7.7070    3.5790 C   0  0  0  0  0  3  0  0  0  0  0  0
    3.2310   -8.6210    3.8000 C   0  0  0  0  0  3  0  0  0  0  0  0
    2.6230   -9.2860    2.7310 C   0  0  0  0  0  0  0  0  0  0  0  0
    3.0520   -9.0200    1.4320 C   0  0  0  0  0  3  0  0  0  0  0  0
    4.0900   -8.1050    1.2100 C   0  0  0  0  0  3  0  0  0  0  0  0
    9.1740   -3.8900    0.4660 C   0  0  0  0  0  0  0  0  0  0  0  0
    8.6190   -2.9750    1.3740 C   0  0  0  0  0  3  0  0  0  0  0  0
    7.5060   -3.2890    2.1650 C   0  0  0  0  0  3  0  0  0  0  0  0
    6.9490   -4.5670    2.0210 C   0  0  0  0  0  0  0  0  0  0  0  0
    7.4700   -5.4980    1.1270 C   0  0  0  0  0  0  0  0  0  0  0  0
    8.5890   -5.1660    0.3470 C   0  0  0  0  0  3  0  0  0  0  0  0
    6.7470   -6.6640    1.1610 N   0  0  0  0  0  0  0  0  0  0  0  0
    5.7640   -6.4660    2.0170 C   0  0  0  0  0  0  0  0  0  0  0  0
    5.8930   -5.2230    2.6220 N   0  0  0  0  0  0  0  0  0  0  0  0
    5.0880   -4.7280    3.7370 C   0  0  0  0  0  3  0  0  0  0  0  0
    5.9100   -3.9320    4.7660 C   0  0  0  0  0  2  0  0  0  0  0  0
    5.0410   -3.4750    5.9370 C   0  0  0  0  0  2  0  0  0  0  0  0
    3.8180   -2.6970    5.4620 C   0  0  0  0  0  2  0  0  0  0  0  0
    2.9960   -3.4990    4.4560 C   0  0  0  0  0  2  0  0  0  0  0  0
    3.8440   -3.9550    3.2710 C   0  0  0  0  0  2  0  0  0  0  0  0
   11.4140   -4.2440   -0.2580 O   0  0  0  0  0  1  0  0  0  0  0  0
   10.3810   -3.5100   -0.3700 C   0  0  0  0  0  0  0  0  0  0  0  0
   10.2730   -2.4910   -1.1220 O   0  0  0  0  0  0  0  0  0  0  0  0
    1.5940  -10.1110    3.0920 O   0  0  0  0  0  0  0  0  0  0  0  0
    1.7320  -11.5200    2.8830 C   0  0  0  0  0  2  0  0  0  0  0  0
    3.0700  -12.0970    3.3190 C   0  0  0  0  0  0  0  0  0  0  0  0
    3.5900  -11.8390    4.6040 C   0  0  0  0  0  3  0  0  0  0  0  0
    4.8100  -12.3830    5.0050 C   0  0  0  0  0  0  0  0  0  0  0  0
    5.4220  -12.0480    6.5780 Cl  0  0  0  0  0  0  0  0  0  0  0  0
    5.5390  -13.1910    4.1420 C   0  0  0  0  0  3  0  0  0  0  0  0
    5.0460  -13.4500    2.8640 C   0  0  0  0  0  3  0  0  0  0  0  0
    3.8190  -12.9110    2.4320 C   0  0  0  0  0  0  0  0  0  0  0  0
    3.3710  -13.2000    1.0630 C   0  0  0  0  0  0  0  0  0  0  0  0
    2.5610  -14.3160    0.8000 C   0  0  0  0  0  3  0  0  0  0  0  0
    2.1250  -14.5910   -0.4970 C   0  0  0  0  0  3  0  0  0  0  0  0
    2.4910  -13.7510   -1.5470 C   0  0  0  0  0  3  0  0  0  0  0  0
    3.2900  -12.6380   -1.3010 C   0  0  0  0  0  3  0  0  0  0  0  0
    3.7280  -12.3620   -0.0030 C   0  0  0  0  0  3  0  0  0  0  0  0
  1  2  1  0  0  0  0
  2  3  2  0  0  0  0
  4 25  1  0  0  0  0
  4  3  1  0  0  0  0
  5  4  2  0  0  0  0
  6  5  1  0  0  0  0
  6  1  2  0  0  0  0
  7  8  1  0  0  0  0
  8  9  2  0  0  0  0
 10  9  1  0  0  0  0
 10 15  1  0  0  0  0
 11 13  1  0  0  0  0
 11 10  2  0  0  0  0
 12  7  2  0  0  0  0
 12 11  1  0  0  0  0
 13 14  2  0  0  0  0
 14  1  1  0  0  0  0
 14 15  1  0  0  0  0
 15 16  1  0  0  0  0
 16 17  1  0  0  0  0
 17 18  1  0  0  0  0
 19 18  1  0  0  0  0
 20 19  1  0  0  0  0
 21 16  1  0  0  0  0
 21 20  1  0  0  0  0
 23 22  1  0  0  0  0
 23  7  1  0  0  0  0
 24 23  2  0  0  0  0
 26 25  1  0  0  0  0
 26 27  1  0  0  0  0
 27 28  1  0  0  0  0
 28 29  2  0  0  0  0
 29 30  1  0  0  0  0
 31 29  1  0  0  0  0
 32 31  2  0  0  0  0
 33 32  1  0  0  0  0
 33 27  2  0  0  0  0
 34 33  1  0  0  0  0
 35 34  1  0  0  0  0
 36 35  2  0  0  0  0
 37 38  2  0  0  0  0
 37 36  1  0  0  0  0
 38 39  1  0  0  0  0
 39 34  2  0  0  0  0
M  END
>  <minimizedAffinity>
-8.80313778

$$$$
