
 OpenBabel09122222393D

 39 44  0  0  0  0  0  0  0  0999 V2000
    6.1580   -6.5860    0.5640 C   0  0  0  0  0  0  0  0  0  0  0  0
    7.3940   -6.5110    1.2160 C   0  0  0  0  0  3  0  0  0  0  0  0
    8.4240   -5.7310    0.6840 C   0  0  0  0  0  3  0  0  0  0  0  0
    8.2450   -5.0280   -0.5100 C   0  0  0  0  0  0  0  0  0  0  0  0
    7.0240   -5.1180   -1.1770 C   0  0  0  0  0  3  0  0  0  0  0  0
    5.9900   -5.8970   -0.6430 C   0  0  0  0  0  3  0  0  0  0  0  0
    2.0090  -10.6420    2.0500 C   0  0  0  0  0  0  0  0  0  0  0  0
    1.8980   -9.8840    3.2270 C   0  0  0  0  0  3  0  0  0  0  0  0
    2.6480   -8.7200    3.4400 C   0  0  0  0  0  3  0  0  0  0  0  0
    3.5320   -8.3250    2.4260 C   0  0  0  0  0  0  0  0  0  0  0  0
    3.6730   -9.0550    1.2490 C   0  0  0  0  0  0  0  0  0  0  0  0
    2.9080  -10.2150    1.0530 C   0  0  0  0  0  3  0  0  0  0  0  0
    4.6030   -8.4750    0.4240 N   0  0  0  0  0  0  0  0  0  0  0  0
    5.0770   -7.4320    1.0760 C   0  0  0  0  0  0  0  0  0  0  0  0
    4.3980   -7.2600    2.2740 N   0  0  0  0  0  0  0  0  0  0  0  0
    4.5350   -6.1210    3.1790 C   0  0  0  0  0  3  0  0  0  0  0  0
    4.0830   -4.7920    2.5480 C   0  0  0  0  0  2  0  0  0  0  0  0
    4.2890   -3.6220    3.5080 C   0  0  0  0  0  2  0  0  0  0  0  0
    3.6150   -3.8710    4.8540 C   0  0  0  0  0  2  0  0  0  0  0  0
    4.0820   -5.1800    5.4840 C   0  0  0  0  0  2  0  0  0  0  0  0
    3.8740   -6.3660    4.5440 C   0  0  0  0  0  2  0  0  0  0  0  0
    1.4030  -12.5840    0.8140 O   0  0  0  0  0  0  0  0  0  0  0  0
    1.1770  -11.8950    1.8600 C   0  0  0  0  0  0  0  0  0  0  0  0
    0.3190  -12.1690    2.7560 O   0  0  0  0  0  1  0  0  0  0  0  0
    9.3540   -4.3510   -0.9370 O   0  0  0  0  0  0  0  0  0  0  0  0
   10.1610   -3.6680    0.0280 C   0  0  0  0  0  2  0  0  0  0  0  0
   10.1790   -2.1540   -0.1190 C   0  0  0  0  0  0  0  0  0  0  0  0
   10.6580   -1.5430   -1.2950 C   0  0  0  0  0  3  0  0  0  0  0  0
   10.6580   -0.1550   -1.4320 C   0  0  0  0  0  0  0  0  0  0  0  0
   11.2520    0.5640   -2.8780 Cl  0  0  0  0  0  0  0  0  0  0  0  0
   10.1850    0.6530   -0.4070 C   0  0  0  0  0  3  0  0  0  0  0  0
    9.7150    0.0690    0.7680 C   0  0  0  0  0  3  0  0  0  0  0  0
    9.7080   -1.3300    0.9340 C   0  0  0  0  0  0  0  0  0  0  0  0
    9.2260   -1.8810    2.2080 C   0  0  0  0  0  0  0  0  0  0  0  0
    9.8250   -1.5000    3.4190 C   0  0  0  0  0  3  0  0  0  0  0  0
    9.3670   -2.0140    4.6330 C   0  0  0  0  0  3  0  0  0  0  0  0
    8.3030   -2.9130    4.6510 C   0  0  0  0  0  3  0  0  0  0  0  0
    7.6960   -3.2970    3.4580 C   0  0  0  0  0  3  0  0  0  0  0  0
    8.1540   -2.7830    2.2420 C   0  0  0  0  0  3  0  0  0  0  0  0
  1 14  1  0  0  0  0
  1  2  1  0  0  0  0
  3  2  2  0  0  0  0
  4  3  1  0  0  0  0
  5  6  1  0  0  0  0
  5  4  2  0  0  0  0
  6  1  2  0  0  0  0
  7  8  1  0  0  0  0
  8  9  2  0  0  0  0
 10  9  1  0  0  0  0
 11 10  2  0  0  0  0
 12 11  1  0  0  0  0
 12  7  2  0  0  0  0
 13 14  2  0  0  0  0
 13 11  1  0  0  0  0
 14 15  1  0  0  0  0
 15 10  1  0  0  0  0
 15 16  1  0  0  0  0
 16 21  1  0  0  0  0
 17 16  1  0  0  0  0
 17 18  1  0  0  0  0
 18 19  1  0  0  0  0
 19 20  1  0  0  0  0
 21 20  1  0  0  0  0
 22 23  2  0  0  0  0
 23  7  1  0  0  0  0
 23 24  1  0  0  0  0
 25  4  1  0  0  0  0
 25 26  1  0  0  0  0
 27 26  1  0  0  0  0
 27 33  1  0  0  0  0
 28 27  2  0  0  0  0
 29 28  1  0  0  0  0
 29 31  2  0  0  0  0
 30 29  1  0  0  0  0
 31 32  1  0  0  0  0
 32 33  2  0  0  0  0
 33 34  1  0  0  0  0
 34 39  2  0  0  0  0
 34 35  1  0  0  0  0
 35 36  2  0  0  0  0
 36 37  1  0  0  0  0
 38 37  2  0  0  0  0
 39 38  1  0  0  0  0
M  END
>  <minimizedAffinity>
-10.2530594

$$$$
