
 OpenBabel09122222393D

 39 44  0  0  0  0  0  0  0  0999 V2000
    4.4600   -8.8190    4.2610 C   0  0  0  0  0  0  0  0  0  0  0  0
    3.9810   -9.6790    5.2550 C   0  0  0  0  0  3  0  0  0  0  0  0
    4.3310  -11.0320    5.2440 C   0  0  0  0  0  3  0  0  0  0  0  0
    5.1500  -11.5510    4.2380 C   0  0  0  0  0  0  0  0  0  0  0  0
    5.6110  -10.7030    3.2320 C   0  0  0  0  0  3  0  0  0  0  0  0
    5.2630   -9.3460    3.2430 C   0  0  0  0  0  3  0  0  0  0  0  0
    2.6470   -3.1550    4.9720 C   0  0  0  0  0  0  0  0  0  0  0  0
    3.3800   -2.9260    3.7970 C   0  0  0  0  0  3  0  0  0  0  0  0
    4.0370   -3.9560    3.1120 C   0  0  0  0  0  3  0  0  0  0  0  0
    3.9430   -5.2500    3.6450 C   0  0  0  0  0  0  0  0  0  0  0  0
    3.2300   -5.5130    4.8110 C   0  0  0  0  0  0  0  0  0  0  0  0
    2.5740   -4.4680    5.4790 C   0  0  0  0  0  3  0  0  0  0  0  0
    3.2980   -6.8460    5.1330 N   0  0  0  0  0  0  0  0  0  0  0  0
    4.0710   -7.4070    4.2240 C   0  0  0  0  0  0  0  0  0  0  0  0
    4.4280   -6.4820    3.2540 N   0  0  0  0  0  0  0  0  0  0  0  0
    5.1380   -6.7780    2.0110 C   0  0  0  0  0  3  0  0  0  0  0  0
    4.2020   -6.8870    0.7940 C   0  0  0  0  0  2  0  0  0  0  0  0
    4.9780   -7.2460   -0.4730 C   0  0  0  0  0  2  0  0  0  0  0  0
    6.1260   -6.2740   -0.7240 C   0  0  0  0  0  2  0  0  0  0  0  0
    7.0620   -6.1850    0.4790 C   0  0  0  0  0  2  0  0  0  0  0  0
    6.3080   -5.8160    1.7550 C   0  0  0  0  0  2  0  0  0  0  0  0
    1.1050   -1.3410    5.0030 O   0  0  0  0  0  0  0  0  0  0  0  0
    1.9490   -2.0110    5.6810 C   0  0  0  0  0  0  0  0  0  0  0  0
    2.2530   -1.8040    6.8970 O   0  0  0  0  0  1  0  0  0  0  0  0
    5.3660  -12.8970    4.3250 O   0  0  0  0  0  0  0  0  0  0  0  0
    5.2220  -13.6990    3.1480 C   0  0  0  0  0  2  0  0  0  0  0  0
    3.9730  -14.5670    3.1200 C   0  0  0  0  0  0  0  0  0  0  0  0
    4.0010  -15.8950    3.5910 C   0  0  0  0  0  3  0  0  0  0  0  0
    2.8510  -16.6830    3.5780 C   0  0  0  0  0  0  0  0  0  0  0  0
    2.9140  -18.3030    4.1550 Cl  0  0  0  0  0  0  0  0  0  0  0  0
    1.6520  -16.1720    3.1000 C   0  0  0  0  0  3  0  0  0  0  0  0
    1.6060  -14.8630    2.6210 C   0  0  0  0  0  3  0  0  0  0  0  0
    2.7540  -14.0470    2.6190 C   0  0  0  0  0  0  0  0  0  0  0  0
    2.6450  -12.6870    2.0750 C   0  0  0  0  0  0  0  0  0  0  0  0
    3.2880  -12.3470    0.8750 C   0  0  0  0  0  3  0  0  0  0  0  0
    3.1820  -11.0580    0.3480 C   0  0  0  0  0  3  0  0  0  0  0  0
    2.4270  -10.0950    1.0140 C   0  0  0  0  0  3  0  0  0  0  0  0
    1.7780  -10.4180    2.2030 C   0  0  0  0  0  3  0  0  0  0  0  0
    1.8860  -11.7080    2.7310 C   0  0  0  0  0  3  0  0  0  0  0  0
  1  2  1  0  0  0  0
  3  2  2  0  0  0  0
  4 25  1  0  0  0  0
  4  3  1  0  0  0  0
  5  6  1  0  0  0  0
  5  4  2  0  0  0  0
  6  1  2  0  0  0  0
  7 12  1  0  0  0  0
  7 23  1  0  0  0  0
  8  7  2  0  0  0  0
  9 10  2  0  0  0  0
  9  8  1  0  0  0  0
 10 11  1  0  0  0  0
 11 13  1  0  0  0  0
 11 12  2  0  0  0  0
 14  1  1  0  0  0  0
 14 13  2  0  0  0  0
 15 10  1  0  0  0  0
 15 14  1  0  0  0  0
 16 15  1  0  0  0  0
 17 16  1  0  0  0  0
 18 17  1  0  0  0  0
 19 18  1  0  0  0  0
 19 20  1  0  0  0  0
 20 21  1  0  0  0  0
 21 16  1  0  0  0  0
 22 23  2  0  0  0  0
 23 24  1  0  0  0  0
 26 25  1  0  0  0  0
 27 26  1  0  0  0  0
 27 28  1  0  0  0  0
 29 28  2  0  0  0  0
 29 30  1  0  0  0  0
 31 29  1  0  0  0  0
 32 31  2  0  0  0  0
 33 32  1  0  0  0  0
 33 27  2  0  0  0  0
 34 33  1  0  0  0  0
 34 39  1  0  0  0  0
 35 34  2  0  0  0  0
 36 35  1  0  0  0  0
 36 37  2  0  0  0  0
 37 38  1  0  0  0  0
 38 39  2  0  0  0  0
M  END
>  <minimizedAffinity>
-8.98773289

$$$$
