
 OpenBabel09122222393D

 39 44  0  0  0  0  0  0  0  0999 V2000
    4.3880   -8.8530    3.1140 C   0  0  0  0  0  0  0  0  0  0  0  0
    5.4680   -9.4970    3.7260 C   0  0  0  0  0  3  0  0  0  0  0  0
    5.6960  -10.8580    3.5030 C   0  0  0  0  0  3  0  0  0  0  0  0
    4.8430  -11.6000    2.6800 C   0  0  0  0  0  0  0  0  0  0  0  0
    3.7510  -10.9690    2.0870 C   0  0  0  0  0  3  0  0  0  0  0  0
    3.5240   -9.6040    2.3070 C   0  0  0  0  0  3  0  0  0  0  0  0
    2.8530   -3.3510    4.9170 C   0  0  0  0  0  0  0  0  0  0  0  0
    3.7790   -2.9330    3.9480 C   0  0  0  0  0  3  0  0  0  0  0  0
    4.4690   -3.8400    3.1330 C   0  0  0  0  0  3  0  0  0  0  0  0
    4.2080   -5.2040    3.3170 C   0  0  0  0  0  0  0  0  0  0  0  0
    3.3020   -5.6560    4.2720 C   0  0  0  0  0  0  0  0  0  0  0  0
    2.6160   -4.7320    5.0740 C   0  0  0  0  0  3  0  0  0  0  0  0
    3.2310   -7.0260    4.2670 N   0  0  0  0  0  0  0  0  0  0  0  0
    4.1020   -7.4390    3.3670 C   0  0  0  0  0  0  0  0  0  0  0  0
    4.6690   -6.3560    2.7100 N   0  0  0  0  0  0  0  0  0  0  0  0
    5.5490   -6.4280    1.5450 C   0  0  0  0  0  3  0  0  0  0  0  0
    4.7970   -6.2680    0.2120 C   0  0  0  0  0  2  0  0  0  0  0  0
    5.7450   -6.3990   -0.9790 C   0  0  0  0  0  2  0  0  0  0  0  0
    6.9230   -5.4350   -0.8710 C   0  0  0  0  0  2  0  0  0  0  0  0
    7.6760   -5.6120    0.4450 C   0  0  0  0  0  2  0  0  0  0  0  0
    6.7480   -5.4730    1.6500 C   0  0  0  0  0  2  0  0  0  0  0  0
    1.3370   -1.5360    5.1810 O   0  0  0  0  0  0  0  0  0  0  0  0
    2.1260   -2.3360    5.7770 C   0  0  0  0  0  0  0  0  0  0  0  0
    2.3540   -2.3590    7.0270 O   0  0  0  0  0  1  0  0  0  0  0  0
    5.1560  -12.9270    2.5960 O   0  0  0  0  0  0  0  0  0  0  0  0
    5.4610  -13.6440    3.7980 C   0  0  0  0  0  2  0  0  0  0  0  0
    4.3470  -14.5540    4.2920 C   0  0  0  0  0  0  0  0  0  0  0  0
    4.2100  -15.8680    3.8010 C   0  0  0  0  0  3  0  0  0  0  0  0
    3.1970  -16.7050    4.2680 C   0  0  0  0  0  0  0  0  0  0  0  0
    3.0500  -18.3030    3.6490 Cl  0  0  0  0  0  0  0  0  0  0  0  0
    2.3000  -16.2560    5.2290 C   0  0  0  0  0  3  0  0  0  0  0  0
    2.4130  -14.9560    5.7210 C   0  0  0  0  0  3  0  0  0  0  0  0
    3.4250  -14.0900    5.2630 C   0  0  0  0  0  0  0  0  0  0  0  0
    3.4710  -12.7230    5.8010 C   0  0  0  0  0  0  0  0  0  0  0  0
    4.4930  -12.3410    6.6840 C   0  0  0  0  0  3  0  0  0  0  0  0
    4.5470  -11.0410    7.1920 C   0  0  0  0  0  3  0  0  0  0  0  0
    3.5820  -10.1080    6.8200 C   0  0  0  0  0  3  0  0  0  0  0  0
    2.5650  -10.4710    5.9400 C   0  0  0  0  0  3  0  0  0  0  0  0
    2.5090  -11.7720    5.4320 C   0  0  0  0  0  3  0  0  0  0  0  0
  1 14  1  0  0  0  0
  1  2  1  0  0  0  0
  3  2  2  0  0  0  0
  4  3  1  0  0  0  0
  5  6  1  0  0  0  0
  5  4  2  0  0  0  0
  6  1  2  0  0  0  0
  7 12  1  0  0  0  0
  7 23  1  0  0  0  0
  8  7  2  0  0  0  0
  9 10  2  0  0  0  0
  9  8  1  0  0  0  0
 10 11  1  0  0  0  0
 11 12  2  0  0  0  0
 13 11  1  0  0  0  0
 14 13  2  0  0  0  0
 15 10  1  0  0  0  0
 15 14  1  0  0  0  0
 16 21  1  0  0  0  0
 16 15  1  0  0  0  0
 17 16  1  0  0  0  0
 18 19  1  0  0  0  0
 18 17  1  0  0  0  0
 19 20  1  0  0  0  0
 20 21  1  0  0  0  0
 22 23  2  0  0  0  0
 23 24  1  0  0  0  0
 25  4  1  0  0  0  0
 25 26  1  0  0  0  0
 26 27  1  0  0  0  0
 27 33  1  0  0  0  0
 28 29  1  0  0  0  0
 28 27  2  0  0  0  0
 29 31  2  0  0  0  0
 30 29  1  0  0  0  0
 31 32  1  0  0  0  0
 33 32  2  0  0  0  0
 33 34  1  0  0  0  0
 34 35  1  0  0  0  0
 35 36  2  0  0  0  0
 37 36  1  0  0  0  0
 38 37  2  0  0  0  0
 39 34  2  0  0  0  0
 39 38  1  0  0  0  0
M  END
>  <minimizedAffinity>
-9.47174072

$$$$
