
 OpenBabel09122222393D

 39 44  0  0  0  0  0  0  0  0999 V2000
    4.5270   -8.7460    4.0270 C   0  0  0  0  0  0  0  0  0  0  0  0
    3.8320   -9.7100    4.7650 C   0  0  0  0  0  3  0  0  0  0  0  0
    4.2020  -11.0550    4.6910 C   0  0  0  0  0  3  0  0  0  0  0  0
    5.2580  -11.4630    3.8710 C   0  0  0  0  0  0  0  0  0  0  0  0
    5.9390  -10.5100    3.1150 C   0  0  0  0  0  3  0  0  0  0  0  0
    5.5710   -9.1600    3.1910 C   0  0  0  0  0  3  0  0  0  0  0  0
    2.6550   -3.1370    4.9770 C   0  0  0  0  0  0  0  0  0  0  0  0
    3.4270   -2.8410    3.8430 C   0  0  0  0  0  3  0  0  0  0  0  0
    4.1140   -3.8300    3.1280 C   0  0  0  0  0  3  0  0  0  0  0  0
    4.0100   -5.1510    3.5860 C   0  0  0  0  0  0  0  0  0  0  0  0
    3.2590   -5.4800    4.7100 C   0  0  0  0  0  0  0  0  0  0  0  0
    2.5720   -4.4750    5.4100 C   0  0  0  0  0  3  0  0  0  0  0  0
    3.3230   -6.8280    4.9620 N   0  0  0  0  0  0  0  0  0  0  0  0
    4.1310   -7.3360    4.0530 C   0  0  0  0  0  0  0  0  0  0  0  0
    4.5160   -6.3580    3.1460 N   0  0  0  0  0  0  0  0  0  0  0  0
    5.2710   -6.5830    1.9150 C   0  0  0  0  0  3  0  0  0  0  0  0
    4.3800   -6.6240    0.6610 C   0  0  0  0  0  2  0  0  0  0  0  0
    5.2020   -6.9100   -0.5950 C   0  0  0  0  0  2  0  0  0  0  0  0
    6.3570   -5.9250   -0.7490 C   0  0  0  0  0  2  0  0  0  0  0  0
    7.2490   -5.9040    0.4900 C   0  0  0  0  0  2  0  0  0  0  0  0
    6.4480   -5.6080    1.7560 C   0  0  0  0  0  2  0  0  0  0  0  0
    2.1870   -1.9050    6.9600 O   0  0  0  0  0  1  0  0  0  0  0  0
    1.9250   -2.0350    5.7210 C   0  0  0  0  0  0  0  0  0  0  0  0
    1.1090   -1.3230    5.0570 O   0  0  0  0  0  0  0  0  0  0  0  0
    5.4720  -12.8130    3.8580 O   0  0  0  0  0  0  0  0  0  0  0  0
    4.3740  -13.6850    3.5730 C   0  0  0  0  0  2  0  0  0  0  0  0
    4.4010  -14.3050    2.1840 C   0  0  0  0  0  0  0  0  0  0  0  0
    5.0210  -15.5500    1.9560 C   0  0  0  0  0  3  0  0  0  0  0  0
    5.0310  -16.1230    0.6840 C   0  0  0  0  0  0  0  0  0  0  0  0
    5.7980  -17.6420    0.4340 Cl  0  0  0  0  0  0  0  0  0  0  0  0
    4.4280  -15.4730   -0.3850 C   0  0  0  0  0  3  0  0  0  0  0  0
    3.8180  -14.2360   -0.1820 C   0  0  0  0  0  3  0  0  0  0  0  0
    3.7970  -13.6340    1.0910 C   0  0  0  0  0  0  0  0  0  0  0  0
    3.1630  -12.3160    1.2320 C   0  0  0  0  0  0  0  0  0  0  0  0
    2.0380  -12.1520    2.0550 C   0  0  0  0  0  3  0  0  0  0  0  0
    1.4360  -10.9010    2.1980 C   0  0  0  0  0  3  0  0  0  0  0  0
    1.9540   -9.7980    1.5240 C   0  0  0  0  0  3  0  0  0  0  0  0
    3.0720   -9.9440    0.7070 C   0  0  0  0  0  3  0  0  0  0  0  0
    3.6750  -11.1960    0.5620 C   0  0  0  0  0  3  0  0  0  0  0  0
  1 14  1  0  0  0  0
  1  2  1  0  0  0  0
  3  2  2  0  0  0  0
  4  3  1  0  0  0  0
  5  6  1  0  0  0  0
  5  4  2  0  0  0  0
  6  1  2  0  0  0  0
  7 12  1  0  0  0  0
  7 23  1  0  0  0  0
  8  7  2  0  0  0  0
  9 10  2  0  0  0  0
  9  8  1  0  0  0  0
 10 11  1  0  0  0  0
 11 13  1  0  0  0  0
 11 12  2  0  0  0  0
 14 13  2  0  0  0  0
 15 10  1  0  0  0  0
 15 14  1  0  0  0  0
 16 15  1  0  0  0  0
 17 16  1  0  0  0  0
 18 17  1  0  0  0  0
 19 18  1  0  0  0  0
 19 20  1  0  0  0  0
 20 21  1  0  0  0  0
 21 16  1  0  0  0  0
 23 22  1  0  0  0  0
 24 23  2  0  0  0  0
 25  4  1  0  0  0  0
 26 25  1  0  0  0  0
 27 26  1  0  0  0  0
 28 27  1  0  0  0  0
 29 28  2  0  0  0  0
 30 29  1  0  0  0  0
 31 32  2  0  0  0  0
 31 29  1  0  0  0  0
 32 33  1  0  0  0  0
 33 34  1  0  0  0  0
 33 27  2  0  0  0  0
 34 35  1  0  0  0  0
 35 36  2  0  0  0  0
 37 36  1  0  0  0  0
 38 37  2  0  0  0  0
 39 38  1  0  0  0  0
 39 34  2  0  0  0  0
M  END
>  <minimizedAffinity>
-9.50916767

$$$$
