
 OpenBabel09122222393D

 39 44  0  0  0  0  0  0  0  0999 V2000
    5.7330   -6.9040    0.8080 C   0  0  0  0  0  0  0  0  0  0  0  0
    5.4740   -6.0540   -0.2730 C   0  0  0  0  0  3  0  0  0  0  0  0
    6.5130   -5.3370   -0.8710 C   0  0  0  0  0  3  0  0  0  0  0  0
    7.8230   -5.4440   -0.3940 C   0  0  0  0  0  0  0  0  0  0  0  0
    8.0840   -6.2710    0.6970 C   0  0  0  0  0  3  0  0  0  0  0  0
    7.0430   -6.9930    1.2950 C   0  0  0  0  0  3  0  0  0  0  0  0
    1.4990  -10.5400    2.9790 C   0  0  0  0  0  0  0  0  0  0  0  0
    1.5430   -9.6880    4.0940 C   0  0  0  0  0  3  0  0  0  0  0  0
    2.3790   -8.5650    4.1440 C   0  0  0  0  0  3  0  0  0  0  0  0
    3.1890   -8.3100    3.0290 C   0  0  0  0  0  0  0  0  0  0  0  0
    3.1750   -9.1370    1.9080 C   0  0  0  0  0  0  0  0  0  0  0  0
    2.3260  -10.2540    1.8750 C   0  0  0  0  0  3  0  0  0  0  0  0
    4.0600   -8.6870    0.9600 N   0  0  0  0  0  0  0  0  0  0  0  0
    4.6550   -7.6310    1.4800 C   0  0  0  0  0  0  0  0  0  0  0  0
    4.1000   -7.3220    2.7140 N   0  0  0  0  0  0  0  0  0  0  0  0
    4.3900   -6.1290    3.5060 C   0  0  0  0  0  3  0  0  0  0  0  0
    4.0150   -4.8220    2.7850 C   0  0  0  0  0  2  0  0  0  0  0  0
    4.3790   -3.5990    3.6270 C   0  0  0  0  0  2  0  0  0  0  0  0
    3.7700   -3.6740    5.0230 C   0  0  0  0  0  2  0  0  0  0  0  0
    4.1620   -4.9630    5.7410 C   0  0  0  0  0  2  0  0  0  0  0  0
    3.7950   -6.1980    4.9210 C   0  0  0  0  0  2  0  0  0  0  0  0
   -0.4910  -11.6610    3.6530 O   0  0  0  0  0  1  0  0  0  0  0  0
    0.5770  -11.7440    2.9660 C   0  0  0  0  0  0  0  0  0  0  0  0
    0.9350  -12.7460    2.2710 O   0  0  0  0  0  0  0  0  0  0  0  0
    8.7250   -4.6470   -1.0410 O   0  0  0  0  0  0  0  0  0  0  0  0
    9.8700   -4.1750   -0.3230 C   0  0  0  0  0  2  0  0  0  0  0  0
    9.5680   -3.1110    0.7210 C   0  0  0  0  0  0  0  0  0  0  0  0
    8.9320   -3.4430    1.9350 C   0  0  0  0  0  3  0  0  0  0  0  0
    8.6710   -2.4670    2.8960 C   0  0  0  0  0  0  0  0  0  0  0  0
    7.8900   -2.9000    4.3670 Cl  0  0  0  0  0  0  0  0  0  0  0  0
    9.0330   -1.1450    2.6750 C   0  0  0  0  0  3  0  0  0  0  0  0
    9.6550   -0.7950    1.4760 C   0  0  0  0  0  3  0  0  0  0  0  0
    9.9270   -1.7600    0.4880 C   0  0  0  0  0  0  0  0  0  0  0  0
   10.5580   -1.3200   -0.7640 C   0  0  0  0  0  0  0  0  0  0  0  0
   10.1530   -0.1280   -1.3850 C   0  0  0  0  0  3  0  0  0  0  0  0
   10.7540    0.2990   -2.5700 C   0  0  0  0  0  3  0  0  0  0  0  0
   11.7700   -0.4590   -3.1470 C   0  0  0  0  0  3  0  0  0  0  0  0
   12.1860   -1.6410   -2.5410 C   0  0  0  0  0  3  0  0  0  0  0  0
   11.5840   -2.0700   -1.3550 C   0  0  0  0  0  3  0  0  0  0  0  0
  1  6  1  0  0  0  0
  1 14  1  0  0  0  0
  2  1  2  0  0  0  0
  3  4  2  0  0  0  0
  3  2  1  0  0  0  0
  4  5  1  0  0  0  0
  5  6  2  0  0  0  0
  7  8  1  0  0  0  0
  8  9  2  0  0  0  0
 10  9  1  0  0  0  0
 11 10  2  0  0  0  0
 12 11  1  0  0  0  0
 12  7  2  0  0  0  0
 13 14  2  0  0  0  0
 13 11  1  0  0  0  0
 14 15  1  0  0  0  0
 15 10  1  0  0  0  0
 15 16  1  0  0  0  0
 16 21  1  0  0  0  0
 17 16  1  0  0  0  0
 17 18  1  0  0  0  0
 18 19  1  0  0  0  0
 19 20  1  0  0  0  0
 21 20  1  0  0  0  0
 23  7  1  0  0  0  0
 23 22  1  0  0  0  0
 24 23  2  0  0  0  0
 25  4  1  0  0  0  0
 25 26  1  0  0  0  0
 26 27  1  0  0  0  0
 27 28  1  0  0  0  0
 28 29  2  0  0  0  0
 29 30  1  0  0  0  0
 31 29  1  0  0  0  0
 32 31  2  0  0  0  0
 33 27  2  0  0  0  0
 33 32  1  0  0  0  0
 34 33  1  0  0  0  0
 35 34  2  0  0  0  0
 36 35  1  0  0  0  0
 37 36  2  0  0  0  0
 37 38  1  0  0  0  0
 38 39  2  0  0  0  0
 39 34  1  0  0  0  0
M  END
>  <minimizedAffinity>
-9.3476429

$$$$
