
 OpenBabel09122222393D

 39 44  0  0  0  0  0  0  0  0999 V2000
    3.3510  -11.6230    0.2680 C   0  0  0  0  0  0  0  0  0  0  0  0
    2.0710  -11.9350   -0.2020 C   0  0  0  0  0  3  0  0  0  0  0  0
    1.8740  -13.0500   -1.0210 C   0  0  0  0  0  3  0  0  0  0  0  0
    2.9480  -13.8620   -1.3940 C   0  0  0  0  0  0  0  0  0  0  0  0
    4.2300  -13.5420   -0.9480 C   0  0  0  0  0  3  0  0  0  0  0  0
    4.4280  -12.4260   -0.1240 C   0  0  0  0  0  3  0  0  0  0  0  0
    4.4530   -6.3320    2.8510 C   0  0  0  0  0  0  0  0  0  0  0  0
    3.8590   -6.9230    3.9790 C   0  0  0  0  0  3  0  0  0  0  0  0
    3.4090   -8.2490    3.9780 C   0  0  0  0  0  3  0  0  0  0  0  0
    3.5670   -8.9860    2.7960 C   0  0  0  0  0  0  0  0  0  0  0  0
    4.1450   -8.4320    1.6570 C   0  0  0  0  0  0  0  0  0  0  0  0
    4.5960   -7.1030    1.6800 C   0  0  0  0  0  3  0  0  0  0  0  0
    4.1760   -9.3440    0.6330 N   0  0  0  0  0  0  0  0  0  0  0  0
    3.5910  -10.4340    1.0900 C   0  0  0  0  0  0  0  0  0  0  0  0
    3.2690  -10.2840    2.4320 N   0  0  0  0  0  0  0  0  0  0  0  0
    2.7620  -11.3360    3.3110 C   0  0  0  0  0  3  0  0  0  0  0  0
    3.5560  -11.4560    4.6240 C   0  0  0  0  0  2  0  0  0  0  0  0
    3.0250  -12.5970    5.4910 C   0  0  0  0  0  2  0  0  0  0  0  0
    1.5260  -12.4630    5.7430 C   0  0  0  0  0  2  0  0  0  0  0  0
    0.7420  -12.3640    4.4370 C   0  0  0  0  0  2  0  0  0  0  0  0
    1.2500  -11.2210    3.5590 C   0  0  0  0  0  2  0  0  0  0  0  0
    4.0360   -3.9940    3.0100 O   0  0  0  0  0  1  0  0  0  0  0  0
    4.9290   -4.8940    2.8960 C   0  0  0  0  0  0  0  0  0  0  0  0
    6.1800   -4.6890    2.8190 O   0  0  0  0  0  0  0  0  0  0  0  0
    2.6150  -14.8840   -2.2380 O   0  0  0  0  0  0  0  0  0  0  0  0
    2.7430  -16.2330   -1.7740 C   0  0  0  0  0  2  0  0  0  0  0  0
    1.5460  -16.7490   -0.9900 C   0  0  0  0  0  0  0  0  0  0  0  0
    0.3800  -17.1900   -1.6490 C   0  0  0  0  0  3  0  0  0  0  0  0
   -0.7090  -17.6770   -0.9270 C   0  0  0  0  0  0  0  0  0  0  0  0
   -2.1200  -18.2060   -1.7560 Cl  0  0  0  0  0  0  0  0  0  0  0  0
   -0.6650  -17.7350    0.4600 C   0  0  0  0  0  3  0  0  0  0  0  0
    0.4750  -17.2940    1.1310 C   0  0  0  0  0  3  0  0  0  0  0  0
    1.5870  -16.7950    0.4260 C   0  0  0  0  0  0  0  0  0  0  0  0
    2.7460  -16.3200    1.1940 C   0  0  0  0  0  0  0  0  0  0  0  0
    2.6500  -15.1660    1.9870 C   0  0  0  0  0  3  0  0  0  0  0  0
    3.7450  -14.7150    2.7250 C   0  0  0  0  0  3  0  0  0  0  0  0
    4.9500  -15.4130    2.6820 C   0  0  0  0  0  3  0  0  0  0  0  0
    5.0590  -16.5630    1.9030 C   0  0  0  0  0  3  0  0  0  0  0  0
    3.9630  -17.0150    1.1630 C   0  0  0  0  0  3  0  0  0  0  0  0
  1 14  1  0  0  0  0
  2  1  2  0  0  0  0
  3  2  1  0  0  0  0
  4  3  2  0  0  0  0
  4  5  1  0  0  0  0
  5  6  2  0  0  0  0
  6  1  1  0  0  0  0
  7 23  1  0  0  0  0
  7  8  1  0  0  0  0
  9  8  2  0  0  0  0
 10  9  1  0  0  0  0
 11 12  1  0  0  0  0
 11 10  2  0  0  0  0
 12  7  2  0  0  0  0
 13 14  2  0  0  0  0
 13 11  1  0  0  0  0
 14 15  1  0  0  0  0
 15 10  1  0  0  0  0
 15 16  1  0  0  0  0
 16 21  1  0  0  0  0
 16 17  1  0  0  0  0
 17 18  1  0  0  0  0
 18 19  1  0  0  0  0
 20 19  1  0  0  0  0
 21 20  1  0  0  0  0
 23 22  1  0  0  0  0
 24 23  2  0  0  0  0
 25 26  1  0  0  0  0
 25  4  1  0  0  0  0
 26 27  1  0  0  0  0
 27 33  1  0  0  0  0
 28 27  2  0  0  0  0
 28 29  1  0  0  0  0
 29 31  2  0  0  0  0
 30 29  1  0  0  0  0
 31 32  1  0  0  0  0
 33 32  2  0  0  0  0
 33 34  1  0  0  0  0
 34 35  1  0  0  0  0
 35 36  2  0  0  0  0
 37 36  1  0  0  0  0
 38 37  2  0  0  0  0
 39 34  2  0  0  0  0
 39 38  1  0  0  0  0
M  END
>  <minimizedAffinity>
-8.8753109

$$$$
