
 OpenBabel09122221543D

 39 44  0  0  0  0  0  0  0  0999 V2000
    6.1580   -6.5860    0.5640 C   0  0  0  0  0  0  0  0  0  0  0  0
    7.3940   -6.5110    1.2160 C   0  0  0  0  0  3  0  0  0  0  0  0
    8.4240   -5.7310    0.6840 C   0  0  0  0  0  3  0  0  0  0  0  0
    8.2450   -5.0280   -0.5100 C   0  0  0  0  0  0  0  0  0  0  0  0
    7.0240   -5.1180   -1.1770 C   0  0  0  0  0  3  0  0  0  0  0  0
    5.9900   -5.8970   -0.6430 C   0  0  0  0  0  3  0  0  0  0  0  0
    2.0090  -10.6420    2.0500 C   0  0  0  0  0  0  0  0  0  0  0  0
    1.8980   -9.8840    3.2270 C   0  0  0  0  0  3  0  0  0  0  0  0
    2.6480   -8.7200    3.4400 C   0  0  0  0  0  3  0  0  0  0  0  0
    3.5320   -8.3250    2.4260 C   0  0  0  0  0  0  0  0  0  0  0  0
    3.6730   -9.0550    1.2490 C   0  0  0  0  0  0  0  0  0  0  0  0
    2.9080  -10.2150    1.0530 C   0  0  0  0  0  3  0  0  0  0  0  0
    4.6030   -8.4750    0.4240 N   0  0  0  0  0  0  0  0  0  0  0  0
    5.0770   -7.4320    1.0760 C   0  0  0  0  0  0  0  0  0  0  0  0
    4.3980   -7.2600    2.2740 N   0  0  0  0  0  0  0  0  0  0  0  0
    4.5350   -6.1210    3.1790 C   0  0  0  0  0  3  0  0  0  0  0  0
    4.0830   -4.7920    2.5480 C   0  0  0  0  0  2  0  0  0  0  0  0
    4.2890   -3.6220    3.5080 C   0  0  0  0  0  2  0  0  0  0  0  0
    3.6150   -3.8710    4.8540 C   0  0  0  0  0  2  0  0  0  0  0  0
    4.0820   -5.1800    5.4840 C   0  0  0  0  0  2  0  0  0  0  0  0
    3.8740   -6.3660    4.5440 C   0  0  0  0  0  2  0  0  0  0  0  0
    1.4030  -12.5840    0.8140 O   0  0  0  0  0  0  0  0  0  0  0  0
    1.1770  -11.8950    1.8600 C   0  0  0  0  0  0  0  0  0  0  0  0
    0.3190  -12.1690    2.7560 O   0  0  0  0  0  1  0  0  0  0  0  0
    9.3540   -4.3510   -0.9370 O   0  0  0  0  0  0  0  0  0  0  0  0
   10.1610   -3.6680    0.0280 C   0  0  0  0  0  2  0  0  0  0  0  0
   10.1790   -2.1540   -0.1190 C   0  0  0  0  0  0  0  0  0  0  0  0
   10.6580   -1.5430   -1.2950 C   0  0  0  0  0  3  0  0  0  0  0  0
   10.6580   -0.1550   -1.4320 C   0  0  0  0  0  0  0  0  0  0  0  0
   11.2520    0.5640   -2.8780 Cl  0  0  0  0  0  0  0  0  0  0  0  0
   10.1850    0.6530   -0.4070 C   0  0  0  0  0  3  0  0  0  0  0  0
    9.7150    0.0690    0.7680 C   0  0  0  0  0  3  0  0  0  0  0  0
    9.7080   -1.3300    0.9340 C   0  0  0  0  0  0  0  0  0  0  0  0
    9.2260   -1.8810    2.2080 C   0  0  0  0  0  0  0  0  0  0  0  0
    9.8250   -1.5000    3.4190 C   0  0  0  0  0  3  0  0  0  0  0  0
    9.3670   -2.0140    4.6330 C   0  0  0  0  0  3  0  0  0  0  0  0
    8.3030   -2.9130    4.6510 C   0  0  0  0  0  3  0  0  0  0  0  0
    7.6960   -3.2970    3.4580 C   0  0  0  0  0  3  0  0  0  0  0  0
    8.1540   -2.7830    2.2420 C   0  0  0  0  0  3  0  0  0  0  0  0
  1 14  1  0  0  0  0
  1  2  1  0  0  0  0
  3  2  2  0  0  0  0
  4  3  1  0  0  0  0
  5  6  1  0  0  0  0
  5  4  2  0  0  0  0
  6  1  2  0  0  0  0
  7  8  1  0  0  0  0
  8  9  2  0  0  0  0
 10  9  1  0  0  0  0
 11 10  2  0  0  0  0
 12 11  1  0  0  0  0
 12  7  2  0  0  0  0
 13 14  2  0  0  0  0
 13 11  1  0  0  0  0
 14 15  1  0  0  0  0
 15 10  1  0  0  0  0
 15 16  1  0  0  0  0
 16 21  1  0  0  0  0
 17 16  1  0  0  0  0
 17 18  1  0  0  0  0
 18 19  1  0  0  0  0
 19 20  1  0  0  0  0
 21 20  1  0  0  0  0
 22 23  2  0  0  0  0
 23  7  1  0  0  0  0
 23 24  1  0  0  0  0
 25  4  1  0  0  0  0
 25 26  1  0  0  0  0
 27 26  1  0  0  0  0
 27 33  1  0  0  0  0
 28 27  2  0  0  0  0
 29 28  1  0  0  0  0
 29 31  2  0  0  0  0
 30 29  1  0  0  0  0
 31 32  1  0  0  0  0
 32 33  2  0  0  0  0
 33 34  1  0  0  0  0
 34 39  2  0  0  0  0
 34 35  1  0  0  0  0
 35 36  2  0  0  0  0
 36 37  1  0  0  0  0
 38 37  2  0  0  0  0
 39 38  1  0  0  0  0
M  END
>  <minimizedAffinity>
-10.2530594

$$$$

 OpenBabel09122221543D

 39 44  0  0  0  0  0  0  0  0999 V2000
    4.5270   -8.7460    4.0270 C   0  0  0  0  0  0  0  0  0  0  0  0
    3.8320   -9.7100    4.7650 C   0  0  0  0  0  3  0  0  0  0  0  0
    4.2020  -11.0550    4.6910 C   0  0  0  0  0  3  0  0  0  0  0  0
    5.2580  -11.4630    3.8710 C   0  0  0  0  0  0  0  0  0  0  0  0
    5.9390  -10.5100    3.1150 C   0  0  0  0  0  3  0  0  0  0  0  0
    5.5710   -9.1600    3.1910 C   0  0  0  0  0  3  0  0  0  0  0  0
    2.6550   -3.1370    4.9770 C   0  0  0  0  0  0  0  0  0  0  0  0
    3.4270   -2.8410    3.8430 C   0  0  0  0  0  3  0  0  0  0  0  0
    4.1140   -3.8300    3.1280 C   0  0  0  0  0  3  0  0  0  0  0  0
    4.0100   -5.1510    3.5860 C   0  0  0  0  0  0  0  0  0  0  0  0
    3.2590   -5.4800    4.7100 C   0  0  0  0  0  0  0  0  0  0  0  0
    2.5720   -4.4750    5.4100 C   0  0  0  0  0  3  0  0  0  0  0  0
    3.3230   -6.8280    4.9620 N   0  0  0  0  0  0  0  0  0  0  0  0
    4.1310   -7.3360    4.0530 C   0  0  0  0  0  0  0  0  0  0  0  0
    4.5160   -6.3580    3.1460 N   0  0  0  0  0  0  0  0  0  0  0  0
    5.2710   -6.5830    1.9150 C   0  0  0  0  0  3  0  0  0  0  0  0
    4.3800   -6.6240    0.6610 C   0  0  0  0  0  2  0  0  0  0  0  0
    5.2020   -6.9100   -0.5950 C   0  0  0  0  0  2  0  0  0  0  0  0
    6.3570   -5.9250   -0.7490 C   0  0  0  0  0  2  0  0  0  0  0  0
    7.2490   -5.9040    0.4900 C   0  0  0  0  0  2  0  0  0  0  0  0
    6.4480   -5.6080    1.7560 C   0  0  0  0  0  2  0  0  0  0  0  0
    2.1870   -1.9050    6.9600 O   0  0  0  0  0  1  0  0  0  0  0  0
    1.9250   -2.0350    5.7210 C   0  0  0  0  0  0  0  0  0  0  0  0
    1.1090   -1.3230    5.0570 O   0  0  0  0  0  0  0  0  0  0  0  0
    5.4720  -12.8130    3.8580 O   0  0  0  0  0  0  0  0  0  0  0  0
    4.3740  -13.6850    3.5730 C   0  0  0  0  0  2  0  0  0  0  0  0
    4.4010  -14.3050    2.1840 C   0  0  0  0  0  0  0  0  0  0  0  0
    5.0210  -15.5500    1.9560 C   0  0  0  0  0  3  0  0  0  0  0  0
    5.0310  -16.1230    0.6840 C   0  0  0  0  0  0  0  0  0  0  0  0
    5.7980  -17.6420    0.4340 Cl  0  0  0  0  0  0  0  0  0  0  0  0
    4.4280  -15.4730   -0.3850 C   0  0  0  0  0  3  0  0  0  0  0  0
    3.8180  -14.2360   -0.1820 C   0  0  0  0  0  3  0  0  0  0  0  0
    3.7970  -13.6340    1.0910 C   0  0  0  0  0  0  0  0  0  0  0  0
    3.1630  -12.3160    1.2320 C   0  0  0  0  0  0  0  0  0  0  0  0
    2.0380  -12.1520    2.0550 C   0  0  0  0  0  3  0  0  0  0  0  0
    1.4360  -10.9010    2.1980 C   0  0  0  0  0  3  0  0  0  0  0  0
    1.9540   -9.7980    1.5240 C   0  0  0  0  0  3  0  0  0  0  0  0
    3.0720   -9.9440    0.7070 C   0  0  0  0  0  3  0  0  0  0  0  0
    3.6750  -11.1960    0.5620 C   0  0  0  0  0  3  0  0  0  0  0  0
  1 14  1  0  0  0  0
  1  2  1  0  0  0  0
  3  2  2  0  0  0  0
  4  3  1  0  0  0  0
  5  6  1  0  0  0  0
  5  4  2  0  0  0  0
  6  1  2  0  0  0  0
  7 12  1  0  0  0  0
  7 23  1  0  0  0  0
  8  7  2  0  0  0  0
  9 10  2  0  0  0  0
  9  8  1  0  0  0  0
 10 11  1  0  0  0  0
 11 13  1  0  0  0  0
 11 12  2  0  0  0  0
 14 13  2  0  0  0  0
 15 10  1  0  0  0  0
 15 14  1  0  0  0  0
 16 15  1  0  0  0  0
 17 16  1  0  0  0  0
 18 17  1  0  0  0  0
 19 18  1  0  0  0  0
 19 20  1  0  0  0  0
 20 21  1  0  0  0  0
 21 16  1  0  0  0  0
 23 22  1  0  0  0  0
 24 23  2  0  0  0  0
 25  4  1  0  0  0  0
 26 25  1  0  0  0  0
 27 26  1  0  0  0  0
 28 27  1  0  0  0  0
 29 28  2  0  0  0  0
 30 29  1  0  0  0  0
 31 32  2  0  0  0  0
 31 29  1  0  0  0  0
 32 33  1  0  0  0  0
 33 34  1  0  0  0  0
 33 27  2  0  0  0  0
 34 35  1  0  0  0  0
 35 36  2  0  0  0  0
 37 36  1  0  0  0  0
 38 37  2  0  0  0  0
 39 38  1  0  0  0  0
 39 34  2  0  0  0  0
M  END
>  <minimizedAffinity>
-9.50916767

$$$$

 OpenBabel09122221543D

 39 44  0  0  0  0  0  0  0  0999 V2000
    4.3880   -8.8530    3.1140 C   0  0  0  0  0  0  0  0  0  0  0  0
    5.4680   -9.4970    3.7260 C   0  0  0  0  0  3  0  0  0  0  0  0
    5.6960  -10.8580    3.5030 C   0  0  0  0  0  3  0  0  0  0  0  0
    4.8430  -11.6000    2.6800 C   0  0  0  0  0  0  0  0  0  0  0  0
    3.7510  -10.9690    2.0870 C   0  0  0  0  0  3  0  0  0  0  0  0
    3.5240   -9.6040    2.3070 C   0  0  0  0  0  3  0  0  0  0  0  0
    2.8530   -3.3510    4.9170 C   0  0  0  0  0  0  0  0  0  0  0  0
    3.7790   -2.9330    3.9480 C   0  0  0  0  0  3  0  0  0  0  0  0
    4.4690   -3.8400    3.1330 C   0  0  0  0  0  3  0  0  0  0  0  0
    4.2080   -5.2040    3.3170 C   0  0  0  0  0  0  0  0  0  0  0  0
    3.3020   -5.6560    4.2720 C   0  0  0  0  0  0  0  0  0  0  0  0
    2.6160   -4.7320    5.0740 C   0  0  0  0  0  3  0  0  0  0  0  0
    3.2310   -7.0260    4.2670 N   0  0  0  0  0  0  0  0  0  0  0  0
    4.1020   -7.4390    3.3670 C   0  0  0  0  0  0  0  0  0  0  0  0
    4.6690   -6.3560    2.7100 N   0  0  0  0  0  0  0  0  0  0  0  0
    5.5490   -6.4280    1.5450 C   0  0  0  0  0  3  0  0  0  0  0  0
    4.7970   -6.2680    0.2120 C   0  0  0  0  0  2  0  0  0  0  0  0
    5.7450   -6.3990   -0.9790 C   0  0  0  0  0  2  0  0  0  0  0  0
    6.9230   -5.4350   -0.8710 C   0  0  0  0  0  2  0  0  0  0  0  0
    7.6760   -5.6120    0.4450 C   0  0  0  0  0  2  0  0  0  0  0  0
    6.7480   -5.4730    1.6500 C   0  0  0  0  0  2  0  0  0  0  0  0
    1.3370   -1.5360    5.1810 O   0  0  0  0  0  0  0  0  0  0  0  0
    2.1260   -2.3360    5.7770 C   0  0  0  0  0  0  0  0  0  0  0  0
    2.3540   -2.3590    7.0270 O   0  0  0  0  0  1  0  0  0  0  0  0
    5.1560  -12.9270    2.5960 O   0  0  0  0  0  0  0  0  0  0  0  0
    5.4610  -13.6440    3.7980 C   0  0  0  0  0  2  0  0  0  0  0  0
    4.3470  -14.5540    4.2920 C   0  0  0  0  0  0  0  0  0  0  0  0
    4.2100  -15.8680    3.8010 C   0  0  0  0  0  3  0  0  0  0  0  0
    3.1970  -16.7050    4.2680 C   0  0  0  0  0  0  0  0  0  0  0  0
    3.0500  -18.3030    3.6490 Cl  0  0  0  0  0  0  0  0  0  0  0  0
    2.3000  -16.2560    5.2290 C   0  0  0  0  0  3  0  0  0  0  0  0
    2.4130  -14.9560    5.7210 C   0  0  0  0  0  3  0  0  0  0  0  0
    3.4250  -14.0900    5.2630 C   0  0  0  0  0  0  0  0  0  0  0  0
    3.4710  -12.7230    5.8010 C   0  0  0  0  0  0  0  0  0  0  0  0
    4.4930  -12.3410    6.6840 C   0  0  0  0  0  3  0  0  0  0  0  0
    4.5470  -11.0410    7.1920 C   0  0  0  0  0  3  0  0  0  0  0  0
    3.5820  -10.1080    6.8200 C   0  0  0  0  0  3  0  0  0  0  0  0
    2.5650  -10.4710    5.9400 C   0  0  0  0  0  3  0  0  0  0  0  0
    2.5090  -11.7720    5.4320 C   0  0  0  0  0  3  0  0  0  0  0  0
  1 14  1  0  0  0  0
  1  2  1  0  0  0  0
  3  2  2  0  0  0  0
  4  3  1  0  0  0  0
  5  6  1  0  0  0  0
  5  4  2  0  0  0  0
  6  1  2  0  0  0  0
  7 12  1  0  0  0  0
  7 23  1  0  0  0  0
  8  7  2  0  0  0  0
  9 10  2  0  0  0  0
  9  8  1  0  0  0  0
 10 11  1  0  0  0  0
 11 12  2  0  0  0  0
 13 11  1  0  0  0  0
 14 13  2  0  0  0  0
 15 10  1  0  0  0  0
 15 14  1  0  0  0  0
 16 21  1  0  0  0  0
 16 15  1  0  0  0  0
 17 16  1  0  0  0  0
 18 19  1  0  0  0  0
 18 17  1  0  0  0  0
 19 20  1  0  0  0  0
 20 21  1  0  0  0  0
 22 23  2  0  0  0  0
 23 24  1  0  0  0  0
 25  4  1  0  0  0  0
 25 26  1  0  0  0  0
 26 27  1  0  0  0  0
 27 33  1  0  0  0  0
 28 29  1  0  0  0  0
 28 27  2  0  0  0  0
 29 31  2  0  0  0  0
 30 29  1  0  0  0  0
 31 32  1  0  0  0  0
 33 32  2  0  0  0  0
 33 34  1  0  0  0  0
 34 35  1  0  0  0  0
 35 36  2  0  0  0  0
 37 36  1  0  0  0  0
 38 37  2  0  0  0  0
 39 34  2  0  0  0  0
 39 38  1  0  0  0  0
M  END
>  <minimizedAffinity>
-9.47174072

$$$$

 OpenBabel09122221543D

 39 44  0  0  0  0  0  0  0  0999 V2000
    5.7330   -6.9040    0.8080 C   0  0  0  0  0  0  0  0  0  0  0  0
    5.4740   -6.0540   -0.2730 C   0  0  0  0  0  3  0  0  0  0  0  0
    6.5130   -5.3370   -0.8710 C   0  0  0  0  0  3  0  0  0  0  0  0
    7.8230   -5.4440   -0.3940 C   0  0  0  0  0  0  0  0  0  0  0  0
    8.0840   -6.2710    0.6970 C   0  0  0  0  0  3  0  0  0  0  0  0
    7.0430   -6.9930    1.2950 C   0  0  0  0  0  3  0  0  0  0  0  0
    1.4990  -10.5400    2.9790 C   0  0  0  0  0  0  0  0  0  0  0  0
    1.5430   -9.6880    4.0940 C   0  0  0  0  0  3  0  0  0  0  0  0
    2.3790   -8.5650    4.1440 C   0  0  0  0  0  3  0  0  0  0  0  0
    3.1890   -8.3100    3.0290 C   0  0  0  0  0  0  0  0  0  0  0  0
    3.1750   -9.1370    1.9080 C   0  0  0  0  0  0  0  0  0  0  0  0
    2.3260  -10.2540    1.8750 C   0  0  0  0  0  3  0  0  0  0  0  0
    4.0600   -8.6870    0.9600 N   0  0  0  0  0  0  0  0  0  0  0  0
    4.6550   -7.6310    1.4800 C   0  0  0  0  0  0  0  0  0  0  0  0
    4.1000   -7.3220    2.7140 N   0  0  0  0  0  0  0  0  0  0  0  0
    4.3900   -6.1290    3.5060 C   0  0  0  0  0  3  0  0  0  0  0  0
    4.0150   -4.8220    2.7850 C   0  0  0  0  0  2  0  0  0  0  0  0
    4.3790   -3.5990    3.6270 C   0  0  0  0  0  2  0  0  0  0  0  0
    3.7700   -3.6740    5.0230 C   0  0  0  0  0  2  0  0  0  0  0  0
    4.1620   -4.9630    5.7410 C   0  0  0  0  0  2  0  0  0  0  0  0
    3.7950   -6.1980    4.9210 C   0  0  0  0  0  2  0  0  0  0  0  0
   -0.4910  -11.6610    3.6530 O   0  0  0  0  0  1  0  0  0  0  0  0
    0.5770  -11.7440    2.9660 C   0  0  0  0  0  0  0  0  0  0  0  0
    0.9350  -12.7460    2.2710 O   0  0  0  0  0  0  0  0  0  0  0  0
    8.7250   -4.6470   -1.0410 O   0  0  0  0  0  0  0  0  0  0  0  0
    9.8700   -4.1750   -0.3230 C   0  0  0  0  0  2  0  0  0  0  0  0
    9.5680   -3.1110    0.7210 C   0  0  0  0  0  0  0  0  0  0  0  0
    8.9320   -3.4430    1.9350 C   0  0  0  0  0  3  0  0  0  0  0  0
    8.6710   -2.4670    2.8960 C   0  0  0  0  0  0  0  0  0  0  0  0
    7.8900   -2.9000    4.3670 Cl  0  0  0  0  0  0  0  0  0  0  0  0
    9.0330   -1.1450    2.6750 C   0  0  0  0  0  3  0  0  0  0  0  0
    9.6550   -0.7950    1.4760 C   0  0  0  0  0  3  0  0  0  0  0  0
    9.9270   -1.7600    0.4880 C   0  0  0  0  0  0  0  0  0  0  0  0
   10.5580   -1.3200   -0.7640 C   0  0  0  0  0  0  0  0  0  0  0  0
   10.1530   -0.1280   -1.3850 C   0  0  0  0  0  3  0  0  0  0  0  0
   10.7540    0.2990   -2.5700 C   0  0  0  0  0  3  0  0  0  0  0  0
   11.7700   -0.4590   -3.1470 C   0  0  0  0  0  3  0  0  0  0  0  0
   12.1860   -1.6410   -2.5410 C   0  0  0  0  0  3  0  0  0  0  0  0
   11.5840   -2.0700   -1.3550 C   0  0  0  0  0  3  0  0  0  0  0  0
  1  6  1  0  0  0  0
  1 14  1  0  0  0  0
  2  1  2  0  0  0  0
  3  4  2  0  0  0  0
  3  2  1  0  0  0  0
  4  5  1  0  0  0  0
  5  6  2  0  0  0  0
  7  8  1  0  0  0  0
  8  9  2  0  0  0  0
 10  9  1  0  0  0  0
 11 10  2  0  0  0  0
 12 11  1  0  0  0  0
 12  7  2  0  0  0  0
 13 14  2  0  0  0  0
 13 11  1  0  0  0  0
 14 15  1  0  0  0  0
 15 10  1  0  0  0  0
 15 16  1  0  0  0  0
 16 21  1  0  0  0  0
 17 16  1  0  0  0  0
 17 18  1  0  0  0  0
 18 19  1  0  0  0  0
 19 20  1  0  0  0  0
 21 20  1  0  0  0  0
 23  7  1  0  0  0  0
 23 22  1  0  0  0  0
 24 23  2  0  0  0  0
 25  4  1  0  0  0  0
 25 26  1  0  0  0  0
 26 27  1  0  0  0  0
 27 28  1  0  0  0  0
 28 29  2  0  0  0  0
 29 30  1  0  0  0  0
 31 29  1  0  0  0  0
 32 31  2  0  0  0  0
 33 27  2  0  0  0  0
 33 32  1  0  0  0  0
 34 33  1  0  0  0  0
 35 34  2  0  0  0  0
 36 35  1  0  0  0  0
 37 36  2  0  0  0  0
 37 38  1  0  0  0  0
 38 39  2  0  0  0  0
 39 34  1  0  0  0  0
M  END
>  <minimizedAffinity>
-9.3476429

$$$$

 OpenBabel09122221543D

 39 44  0  0  0  0  0  0  0  0999 V2000
    4.2680   -8.9000    3.2380 C   0  0  0  0  0  0  0  0  0  0  0  0
    3.6430   -9.5980    2.1990 C   0  0  0  0  0  3  0  0  0  0  0  0
    3.9420  -10.9440    1.9730 C   0  0  0  0  0  3  0  0  0  0  0  0
    4.8770  -11.6110    2.7690 C   0  0  0  0  0  0  0  0  0  0  0  0
    5.5220  -10.9150    3.7910 C   0  0  0  0  0  3  0  0  0  0  0  0
    5.2200   -9.5670    4.0190 C   0  0  0  0  0  3  0  0  0  0  0  0
    2.8310   -3.3430    4.9490 C   0  0  0  0  0  0  0  0  0  0  0  0
    3.7540   -2.9570    3.9640 C   0  0  0  0  0  3  0  0  0  0  0  0
    4.4240   -3.8890    3.1600 C   0  0  0  0  0  3  0  0  0  0  0  0
    4.1440   -5.2460    3.3720 C   0  0  0  0  0  0  0  0  0  0  0  0
    3.2400   -5.6660    4.3440 C   0  0  0  0  0  0  0  0  0  0  0  0
    2.5750   -4.7160    5.1350 C   0  0  0  0  0  3  0  0  0  0  0  0
    3.1490   -7.0350    4.3650 N   0  0  0  0  0  0  0  0  0  0  0  0
    4.0060   -7.4780    3.4660 C   0  0  0  0  0  0  0  0  0  0  0  0
    4.5820   -6.4160    2.7830 N   0  0  0  0  0  0  0  0  0  0  0  0
    5.4510   -6.5230    1.6130 C   0  0  0  0  0  3  0  0  0  0  0  0
    4.6830   -6.4220    0.2830 C   0  0  0  0  0  2  0  0  0  0  0  0
    5.6200   -6.5880   -0.9130 C   0  0  0  0  0  2  0  0  0  0  0  0
    6.7880   -5.6090   -0.8540 C   0  0  0  0  0  2  0  0  0  0  0  0
    7.5570   -5.7280    0.4580 C   0  0  0  0  0  2  0  0  0  0  0  0
    6.6410   -5.5530    1.6680 C   0  0  0  0  0  2  0  0  0  0  0  0
    1.3170   -1.5230    5.1970 O   0  0  0  0  0  0  0  0  0  0  0  0
    2.1270   -2.3010    5.7960 C   0  0  0  0  0  0  0  0  0  0  0  0
    2.3920   -2.2810    7.0380 O   0  0  0  0  0  1  0  0  0  0  0  0
    5.1070  -12.9070    2.4010 O   0  0  0  0  0  0  0  0  0  0  0  0
    5.6040  -13.8260    3.3790 C   0  0  0  0  0  2  0  0  0  0  0  0
    4.5580  -14.7710    3.9500 C   0  0  0  0  0  0  0  0  0  0  0  0
    3.9540  -14.5180    5.1980 C   0  0  0  0  0  3  0  0  0  0  0  0
    2.9840  -15.3790    5.7110 C   0  0  0  0  0  0  0  0  0  0  0  0
    2.2650  -15.0480    7.2390 Cl  0  0  0  0  0  0  0  0  0  0  0  0
    2.5940  -16.5060    4.9990 C   0  0  0  0  0  3  0  0  0  0  0  0
    3.1870  -16.7790    3.7670 C   0  0  0  0  0  3  0  0  0  0  0  0
    4.1720  -15.9280    3.2280 C   0  0  0  0  0  0  0  0  0  0  0  0
    4.7770  -16.2880    1.9390 C   0  0  0  0  0  0  0  0  0  0  0  0
    5.7740  -17.2740    1.8710 C   0  0  0  0  0  3  0  0  0  0  0  0
    6.3470  -17.6250    0.6480 C   0  0  0  0  0  3  0  0  0  0  0  0
    5.9290  -16.9980   -0.5230 C   0  0  0  0  0  3  0  0  0  0  0  0
    4.9370  -16.0210   -0.4730 C   0  0  0  0  0  3  0  0  0  0  0  0
    4.3640  -15.6670    0.7510 C   0  0  0  0  0  3  0  0  0  0  0  0
  1 14  1  0  0  0  0
  1  6  1  0  0  0  0
  2  1  2  0  0  0  0
  3  2  1  0  0  0  0
  3  4  2  0  0  0  0
  4  5  1  0  0  0  0
  5  6  2  0  0  0  0
  7 12  1  0  0  0  0
  7 23  1  0  0  0  0
  8  7  2  0  0  0  0
  9 10  2  0  0  0  0
  9  8  1  0  0  0  0
 10 11  1  0  0  0  0
 11 13  1  0  0  0  0
 11 12  2  0  0  0  0
 14 13  2  0  0  0  0
 15 10  1  0  0  0  0
 15 14  1  0  0  0  0
 16 21  1  0  0  0  0
 16 15  1  0  0  0  0
 17 16  1  0  0  0  0
 18 19  1  0  0  0  0
 18 17  1  0  0  0  0
 19 20  1  0  0  0  0
 20 21  1  0  0  0  0
 22 23  2  0  0  0  0
 23 24  1  0  0  0  0
 25  4  1  0  0  0  0
 25 26  1  0  0  0  0
 26 27  1  0  0  0  0
 27 28  1  0  0  0  0
 28 29  2  0  0  0  0
 29 30  1  0  0  0  0
 31 29  1  0  0  0  0
 32 31  2  0  0  0  0
 33 32  1  0  0  0  0
 33 27  2  0  0  0  0
 34 33  1  0  0  0  0
 35 34  1  0  0  0  0
 36 35  2  0  0  0  0
 37 38  2  0  0  0  0
 37 36  1  0  0  0  0
 38 39  1  0  0  0  0
 39 34  2  0  0  0  0
M  END
>  <minimizedAffinity>
-9.29992104

$$$$

 OpenBabel09122221543D

 39 44  0  0  0  0  0  0  0  0999 V2000
    4.7370   -7.3860    1.9830 C   0  0  0  0  0  0  0  0  0  0  0  0
    4.3200   -7.7680    3.2630 C   0  0  0  0  0  3  0  0  0  0  0  0
    3.2570   -8.6620    3.4200 C   0  0  0  0  0  3  0  0  0  0  0  0
    2.5850   -9.1770    2.3080 C   0  0  0  0  0  0  0  0  0  0  0  0
    2.9810   -8.7810    1.0310 C   0  0  0  0  0  3  0  0  0  0  0  0
    4.0480   -7.8880    0.8730 C   0  0  0  0  0  3  0  0  0  0  0  0
    9.3220   -3.8570    0.4360 C   0  0  0  0  0  0  0  0  0  0  0  0
    8.7820   -2.9820    1.3920 C   0  0  0  0  0  3  0  0  0  0  0  0
    7.6510   -3.3100    2.1510 C   0  0  0  0  0  3  0  0  0  0  0  0
    7.0590   -4.5590    1.9240 C   0  0  0  0  0  0  0  0  0  0  0  0
    7.5620   -5.4500    0.9800 C   0  0  0  0  0  0  0  0  0  0  0  0
    8.7000   -5.1060    0.2340 C   0  0  0  0  0  3  0  0  0  0  0  0
    6.8050   -6.5930    0.9360 N   0  0  0  0  0  0  0  0  0  0  0  0
    5.8180   -6.4170    1.7930 C   0  0  0  0  0  0  0  0  0  0  0  0
    5.9760   -5.2180    2.4730 N   0  0  0  0  0  0  0  0  0  0  0  0
    5.1720   -4.7670    3.6070 C   0  0  0  0  0  3  0  0  0  0  0  0
    5.9800   -3.9460    4.6280 C   0  0  0  0  0  2  0  0  0  0  0  0
    5.1150   -3.5370    5.8200 C   0  0  0  0  0  2  0  0  0  0  0  0
    3.8520   -2.8060    5.3750 C   0  0  0  0  0  2  0  0  0  0  0  0
    3.0450   -3.6330    4.3770 C   0  0  0  0  0  2  0  0  0  0  0  0
    3.8880   -4.0430    3.1720 C   0  0  0  0  0  2  0  0  0  0  0  0
   10.4210   -2.4960   -1.1780 O   0  0  0  0  0  0  0  0  0  0  0  0
   10.5490   -3.4640   -0.3630 C   0  0  0  0  0  0  0  0  0  0  0  0
   11.6150   -4.1250   -0.1590 O   0  0  0  0  0  1  0  0  0  0  0  0
    1.5350   -9.9960    2.6140 O   0  0  0  0  0  0  0  0  0  0  0  0
    1.8010  -11.3540    2.9800 C   0  0  0  0  0  2  0  0  0  0  0  0
    2.6090  -12.1390    1.9580 C   0  0  0  0  0  0  0  0  0  0  0  0
    2.1290  -12.3340    0.6470 C   0  0  0  0  0  3  0  0  0  0  0  0
    2.8800  -13.0410   -0.2920 C   0  0  0  0  0  0  0  0  0  0  0  0
    2.2690  -13.2680   -1.8840 Cl  0  0  0  0  0  0  0  0  0  0  0  0
    4.1190  -13.5690    0.0490 C   0  0  0  0  0  3  0  0  0  0  0  0
    4.6060  -13.3950    1.3440 C   0  0  0  0  0  3  0  0  0  0  0  0
    3.8670  -12.6880    2.3120 C   0  0  0  0  0  0  0  0  0  0  0  0
    4.4250  -12.5650    3.6660 C   0  0  0  0  0  0  0  0  0  0  0  0
    5.1800  -11.4370    4.0240 C   0  0  0  0  0  3  0  0  0  0  0  0
    5.7060  -11.3110    5.3110 C   0  0  0  0  0  3  0  0  0  0  0  0
    5.4800  -12.3080    6.2560 C   0  0  0  0  0  3  0  0  0  0  0  0
    4.7290  -13.4310    5.9170 C   0  0  0  0  0  3  0  0  0  0  0  0
    4.2030  -13.5590    4.6290 C   0  0  0  0  0  3  0  0  0  0  0  0
  1  2  1  0  0  0  0
  2  3  2  0  0  0  0
  4 25  1  0  0  0  0
  4  3  1  0  0  0  0
  5  4  2  0  0  0  0
  6  5  1  0  0  0  0
  6  1  2  0  0  0  0
  7  8  1  0  0  0  0
  8  9  2  0  0  0  0
 10  9  1  0  0  0  0
 10 15  1  0  0  0  0
 11 10  2  0  0  0  0
 12  7  2  0  0  0  0
 12 11  1  0  0  0  0
 13 11  1  0  0  0  0
 13 14  2  0  0  0  0
 14  1  1  0  0  0  0
 14 15  1  0  0  0  0
 15 16  1  0  0  0  0
 16 17  1  0  0  0  0
 17 18  1  0  0  0  0
 19 18  1  0  0  0  0
 20 19  1  0  0  0  0
 21 16  1  0  0  0  0
 21 20  1  0  0  0  0
 22 23  2  0  0  0  0
 23 24  1  0  0  0  0
 23  7  1  0  0  0  0
 25 26  1  0  0  0  0
 27 33  1  0  0  0  0
 27 26  1  0  0  0  0
 28 27  2  0  0  0  0
 29 31  2  0  0  0  0
 29 28  1  0  0  0  0
 30 29  1  0  0  0  0
 31 32  1  0  0  0  0
 32 33  2  0  0  0  0
 33 34  1  0  0  0  0
 34 35  2  0  0  0  0
 34 39  1  0  0  0  0
 35 36  1  0  0  0  0
 36 37  2  0  0  0  0
 38 37  1  0  0  0  0
 39 38  2  0  0  0  0
M  END
>  <minimizedAffinity>
-9.20346069

$$$$

 OpenBabel09122221543D

 39 44  0  0  0  0  0  0  0  0999 V2000
    4.4600   -8.8190    4.2610 C   0  0  0  0  0  0  0  0  0  0  0  0
    3.9810   -9.6790    5.2550 C   0  0  0  0  0  3  0  0  0  0  0  0
    4.3310  -11.0320    5.2440 C   0  0  0  0  0  3  0  0  0  0  0  0
    5.1500  -11.5510    4.2380 C   0  0  0  0  0  0  0  0  0  0  0  0
    5.6110  -10.7030    3.2320 C   0  0  0  0  0  3  0  0  0  0  0  0
    5.2630   -9.3460    3.2430 C   0  0  0  0  0  3  0  0  0  0  0  0
    2.6470   -3.1550    4.9720 C   0  0  0  0  0  0  0  0  0  0  0  0
    3.3800   -2.9260    3.7970 C   0  0  0  0  0  3  0  0  0  0  0  0
    4.0370   -3.9560    3.1120 C   0  0  0  0  0  3  0  0  0  0  0  0
    3.9430   -5.2500    3.6450 C   0  0  0  0  0  0  0  0  0  0  0  0
    3.2300   -5.5130    4.8110 C   0  0  0  0  0  0  0  0  0  0  0  0
    2.5740   -4.4680    5.4790 C   0  0  0  0  0  3  0  0  0  0  0  0
    3.2980   -6.8460    5.1330 N   0  0  0  0  0  0  0  0  0  0  0  0
    4.0710   -7.4070    4.2240 C   0  0  0  0  0  0  0  0  0  0  0  0
    4.4280   -6.4820    3.2540 N   0  0  0  0  0  0  0  0  0  0  0  0
    5.1380   -6.7780    2.0110 C   0  0  0  0  0  3  0  0  0  0  0  0
    4.2020   -6.8870    0.7940 C   0  0  0  0  0  2  0  0  0  0  0  0
    4.9780   -7.2460   -0.4730 C   0  0  0  0  0  2  0  0  0  0  0  0
    6.1260   -6.2740   -0.7240 C   0  0  0  0  0  2  0  0  0  0  0  0
    7.0620   -6.1850    0.4790 C   0  0  0  0  0  2  0  0  0  0  0  0
    6.3080   -5.8160    1.7550 C   0  0  0  0  0  2  0  0  0  0  0  0
    1.1050   -1.3410    5.0030 O   0  0  0  0  0  0  0  0  0  0  0  0
    1.9490   -2.0110    5.6810 C   0  0  0  0  0  0  0  0  0  0  0  0
    2.2530   -1.8040    6.8970 O   0  0  0  0  0  1  0  0  0  0  0  0
    5.3660  -12.8970    4.3250 O   0  0  0  0  0  0  0  0  0  0  0  0
    5.2220  -13.6990    3.1480 C   0  0  0  0  0  2  0  0  0  0  0  0
    3.9730  -14.5670    3.1200 C   0  0  0  0  0  0  0  0  0  0  0  0
    4.0010  -15.8950    3.5910 C   0  0  0  0  0  3  0  0  0  0  0  0
    2.8510  -16.6830    3.5780 C   0  0  0  0  0  0  0  0  0  0  0  0
    2.9140  -18.3030    4.1550 Cl  0  0  0  0  0  0  0  0  0  0  0  0
    1.6520  -16.1720    3.1000 C   0  0  0  0  0  3  0  0  0  0  0  0
    1.6060  -14.8630    2.6210 C   0  0  0  0  0  3  0  0  0  0  0  0
    2.7540  -14.0470    2.6190 C   0  0  0  0  0  0  0  0  0  0  0  0
    2.6450  -12.6870    2.0750 C   0  0  0  0  0  0  0  0  0  0  0  0
    3.2880  -12.3470    0.8750 C   0  0  0  0  0  3  0  0  0  0  0  0
    3.1820  -11.0580    0.3480 C   0  0  0  0  0  3  0  0  0  0  0  0
    2.4270  -10.0950    1.0140 C   0  0  0  0  0  3  0  0  0  0  0  0
    1.7780  -10.4180    2.2030 C   0  0  0  0  0  3  0  0  0  0  0  0
    1.8860  -11.7080    2.7310 C   0  0  0  0  0  3  0  0  0  0  0  0
  1  2  1  0  0  0  0
  3  2  2  0  0  0  0
  4 25  1  0  0  0  0
  4  3  1  0  0  0  0
  5  6  1  0  0  0  0
  5  4  2  0  0  0  0
  6  1  2  0  0  0  0
  7 12  1  0  0  0  0
  7 23  1  0  0  0  0
  8  7  2  0  0  0  0
  9 10  2  0  0  0  0
  9  8  1  0  0  0  0
 10 11  1  0  0  0  0
 11 13  1  0  0  0  0
 11 12  2  0  0  0  0
 14  1  1  0  0  0  0
 14 13  2  0  0  0  0
 15 10  1  0  0  0  0
 15 14  1  0  0  0  0
 16 15  1  0  0  0  0
 17 16  1  0  0  0  0
 18 17  1  0  0  0  0
 19 18  1  0  0  0  0
 19 20  1  0  0  0  0
 20 21  1  0  0  0  0
 21 16  1  0  0  0  0
 22 23  2  0  0  0  0
 23 24  1  0  0  0  0
 26 25  1  0  0  0  0
 27 26  1  0  0  0  0
 27 28  1  0  0  0  0
 29 28  2  0  0  0  0
 29 30  1  0  0  0  0
 31 29  1  0  0  0  0
 32 31  2  0  0  0  0
 33 32  1  0  0  0  0
 33 27  2  0  0  0  0
 34 33  1  0  0  0  0
 34 39  1  0  0  0  0
 35 34  2  0  0  0  0
 36 35  1  0  0  0  0
 36 37  2  0  0  0  0
 37 38  1  0  0  0  0
 38 39  2  0  0  0  0
M  END
>  <minimizedAffinity>
-8.98773289

$$$$

 OpenBabel09122221543D

 39 44  0  0  0  0  0  0  0  0999 V2000
    3.3510  -11.6230    0.2680 C   0  0  0  0  0  0  0  0  0  0  0  0
    2.0710  -11.9350   -0.2020 C   0  0  0  0  0  3  0  0  0  0  0  0
    1.8740  -13.0500   -1.0210 C   0  0  0  0  0  3  0  0  0  0  0  0
    2.9480  -13.8620   -1.3940 C   0  0  0  0  0  0  0  0  0  0  0  0
    4.2300  -13.5420   -0.9480 C   0  0  0  0  0  3  0  0  0  0  0  0
    4.4280  -12.4260   -0.1240 C   0  0  0  0  0  3  0  0  0  0  0  0
    4.4530   -6.3320    2.8510 C   0  0  0  0  0  0  0  0  0  0  0  0
    3.8590   -6.9230    3.9790 C   0  0  0  0  0  3  0  0  0  0  0  0
    3.4090   -8.2490    3.9780 C   0  0  0  0  0  3  0  0  0  0  0  0
    3.5670   -8.9860    2.7960 C   0  0  0  0  0  0  0  0  0  0  0  0
    4.1450   -8.4320    1.6570 C   0  0  0  0  0  0  0  0  0  0  0  0
    4.5960   -7.1030    1.6800 C   0  0  0  0  0  3  0  0  0  0  0  0
    4.1760   -9.3440    0.6330 N   0  0  0  0  0  0  0  0  0  0  0  0
    3.5910  -10.4340    1.0900 C   0  0  0  0  0  0  0  0  0  0  0  0
    3.2690  -10.2840    2.4320 N   0  0  0  0  0  0  0  0  0  0  0  0
    2.7620  -11.3360    3.3110 C   0  0  0  0  0  3  0  0  0  0  0  0
    3.5560  -11.4560    4.6240 C   0  0  0  0  0  2  0  0  0  0  0  0
    3.0250  -12.5970    5.4910 C   0  0  0  0  0  2  0  0  0  0  0  0
    1.5260  -12.4630    5.7430 C   0  0  0  0  0  2  0  0  0  0  0  0
    0.7420  -12.3640    4.4370 C   0  0  0  0  0  2  0  0  0  0  0  0
    1.2500  -11.2210    3.5590 C   0  0  0  0  0  2  0  0  0  0  0  0
    4.0360   -3.9940    3.0100 O   0  0  0  0  0  1  0  0  0  0  0  0
    4.9290   -4.8940    2.8960 C   0  0  0  0  0  0  0  0  0  0  0  0
    6.1800   -4.6890    2.8190 O   0  0  0  0  0  0  0  0  0  0  0  0
    2.6150  -14.8840   -2.2380 O   0  0  0  0  0  0  0  0  0  0  0  0
    2.7430  -16.2330   -1.7740 C   0  0  0  0  0  2  0  0  0  0  0  0
    1.5460  -16.7490   -0.9900 C   0  0  0  0  0  0  0  0  0  0  0  0
    0.3800  -17.1900   -1.6490 C   0  0  0  0  0  3  0  0  0  0  0  0
   -0.7090  -17.6770   -0.9270 C   0  0  0  0  0  0  0  0  0  0  0  0
   -2.1200  -18.2060   -1.7560 Cl  0  0  0  0  0  0  0  0  0  0  0  0
   -0.6650  -17.7350    0.4600 C   0  0  0  0  0  3  0  0  0  0  0  0
    0.4750  -17.2940    1.1310 C   0  0  0  0  0  3  0  0  0  0  0  0
    1.5870  -16.7950    0.4260 C   0  0  0  0  0  0  0  0  0  0  0  0
    2.7460  -16.3200    1.1940 C   0  0  0  0  0  0  0  0  0  0  0  0
    2.6500  -15.1660    1.9870 C   0  0  0  0  0  3  0  0  0  0  0  0
    3.7450  -14.7150    2.7250 C   0  0  0  0  0  3  0  0  0  0  0  0
    4.9500  -15.4130    2.6820 C   0  0  0  0  0  3  0  0  0  0  0  0
    5.0590  -16.5630    1.9030 C   0  0  0  0  0  3  0  0  0  0  0  0
    3.9630  -17.0150    1.1630 C   0  0  0  0  0  3  0  0  0  0  0  0
  1 14  1  0  0  0  0
  2  1  2  0  0  0  0
  3  2  1  0  0  0  0
  4  3  2  0  0  0  0
  4  5  1  0  0  0  0
  5  6  2  0  0  0  0
  6  1  1  0  0  0  0
  7 23  1  0  0  0  0
  7  8  1  0  0  0  0
  9  8  2  0  0  0  0
 10  9  1  0  0  0  0
 11 12  1  0  0  0  0
 11 10  2  0  0  0  0
 12  7  2  0  0  0  0
 13 14  2  0  0  0  0
 13 11  1  0  0  0  0
 14 15  1  0  0  0  0
 15 10  1  0  0  0  0
 15 16  1  0  0  0  0
 16 21  1  0  0  0  0
 16 17  1  0  0  0  0
 17 18  1  0  0  0  0
 18 19  1  0  0  0  0
 20 19  1  0  0  0  0
 21 20  1  0  0  0  0
 23 22  1  0  0  0  0
 24 23  2  0  0  0  0
 25 26  1  0  0  0  0
 25  4  1  0  0  0  0
 26 27  1  0  0  0  0
 27 33  1  0  0  0  0
 28 27  2  0  0  0  0
 28 29  1  0  0  0  0
 29 31  2  0  0  0  0
 30 29  1  0  0  0  0
 31 32  1  0  0  0  0
 33 32  2  0  0  0  0
 33 34  1  0  0  0  0
 34 35  1  0  0  0  0
 35 36  2  0  0  0  0
 37 36  1  0  0  0  0
 38 37  2  0  0  0  0
 39 34  2  0  0  0  0
 39 38  1  0  0  0  0
M  END
>  <minimizedAffinity>
-8.8753109

$$$$

 OpenBabel09122221543D

 39 44  0  0  0  0  0  0  0  0999 V2000
    4.7140   -7.4530    2.2790 C   0  0  0  0  0  0  0  0  0  0  0  0
    4.2630   -7.7070    3.5790 C   0  0  0  0  0  3  0  0  0  0  0  0
    3.2310   -8.6210    3.8000 C   0  0  0  0  0  3  0  0  0  0  0  0
    2.6230   -9.2860    2.7310 C   0  0  0  0  0  0  0  0  0  0  0  0
    3.0520   -9.0200    1.4320 C   0  0  0  0  0  3  0  0  0  0  0  0
    4.0900   -8.1050    1.2100 C   0  0  0  0  0  3  0  0  0  0  0  0
    9.1740   -3.8900    0.4660 C   0  0  0  0  0  0  0  0  0  0  0  0
    8.6190   -2.9750    1.3740 C   0  0  0  0  0  3  0  0  0  0  0  0
    7.5060   -3.2890    2.1650 C   0  0  0  0  0  3  0  0  0  0  0  0
    6.9490   -4.5670    2.0210 C   0  0  0  0  0  0  0  0  0  0  0  0
    7.4700   -5.4980    1.1270 C   0  0  0  0  0  0  0  0  0  0  0  0
    8.5890   -5.1660    0.3470 C   0  0  0  0  0  3  0  0  0  0  0  0
    6.7470   -6.6640    1.1610 N   0  0  0  0  0  0  0  0  0  0  0  0
    5.7640   -6.4660    2.0170 C   0  0  0  0  0  0  0  0  0  0  0  0
    5.8930   -5.2230    2.6220 N   0  0  0  0  0  0  0  0  0  0  0  0
    5.0880   -4.7280    3.7370 C   0  0  0  0  0  3  0  0  0  0  0  0
    5.9100   -3.9320    4.7660 C   0  0  0  0  0  2  0  0  0  0  0  0
    5.0410   -3.4750    5.9370 C   0  0  0  0  0  2  0  0  0  0  0  0
    3.8180   -2.6970    5.4620 C   0  0  0  0  0  2  0  0  0  0  0  0
    2.9960   -3.4990    4.4560 C   0  0  0  0  0  2  0  0  0  0  0  0
    3.8440   -3.9550    3.2710 C   0  0  0  0  0  2  0  0  0  0  0  0
   11.4140   -4.2440   -0.2580 O   0  0  0  0  0  1  0  0  0  0  0  0
   10.3810   -3.5100   -0.3700 C   0  0  0  0  0  0  0  0  0  0  0  0
   10.2730   -2.4910   -1.1220 O   0  0  0  0  0  0  0  0  0  0  0  0
    1.5940  -10.1110    3.0920 O   0  0  0  0  0  0  0  0  0  0  0  0
    1.7320  -11.5200    2.8830 C   0  0  0  0  0  2  0  0  0  0  0  0
    3.0700  -12.0970    3.3190 C   0  0  0  0  0  0  0  0  0  0  0  0
    3.5900  -11.8390    4.6040 C   0  0  0  0  0  3  0  0  0  0  0  0
    4.8100  -12.3830    5.0050 C   0  0  0  0  0  0  0  0  0  0  0  0
    5.4220  -12.0480    6.5780 Cl  0  0  0  0  0  0  0  0  0  0  0  0
    5.5390  -13.1910    4.1420 C   0  0  0  0  0  3  0  0  0  0  0  0
    5.0460  -13.4500    2.8640 C   0  0  0  0  0  3  0  0  0  0  0  0
    3.8190  -12.9110    2.4320 C   0  0  0  0  0  0  0  0  0  0  0  0
    3.3710  -13.2000    1.0630 C   0  0  0  0  0  0  0  0  0  0  0  0
    2.5610  -14.3160    0.8000 C   0  0  0  0  0  3  0  0  0  0  0  0
    2.1250  -14.5910   -0.4970 C   0  0  0  0  0  3  0  0  0  0  0  0
    2.4910  -13.7510   -1.5470 C   0  0  0  0  0  3  0  0  0  0  0  0
    3.2900  -12.6380   -1.3010 C   0  0  0  0  0  3  0  0  0  0  0  0
    3.7280  -12.3620   -0.0030 C   0  0  0  0  0  3  0  0  0  0  0  0
  1  2  1  0  0  0  0
  2  3  2  0  0  0  0
  4 25  1  0  0  0  0
  4  3  1  0  0  0  0
  5  4  2  0  0  0  0
  6  5  1  0  0  0  0
  6  1  2  0  0  0  0
  7  8  1  0  0  0  0
  8  9  2  0  0  0  0
 10  9  1  0  0  0  0
 10 15  1  0  0  0  0
 11 13  1  0  0  0  0
 11 10  2  0  0  0  0
 12  7  2  0  0  0  0
 12 11  1  0  0  0  0
 13 14  2  0  0  0  0
 14  1  1  0  0  0  0
 14 15  1  0  0  0  0
 15 16  1  0  0  0  0
 16 17  1  0  0  0  0
 17 18  1  0  0  0  0
 19 18  1  0  0  0  0
 20 19  1  0  0  0  0
 21 16  1  0  0  0  0
 21 20  1  0  0  0  0
 23 22  1  0  0  0  0
 23  7  1  0  0  0  0
 24 23  2  0  0  0  0
 26 25  1  0  0  0  0
 26 27  1  0  0  0  0
 27 28  1  0  0  0  0
 28 29  2  0  0  0  0
 29 30  1  0  0  0  0
 31 29  1  0  0  0  0
 32 31  2  0  0  0  0
 33 32  1  0  0  0  0
 33 27  2  0  0  0  0
 34 33  1  0  0  0  0
 35 34  1  0  0  0  0
 36 35  2  0  0  0  0
 37 38  2  0  0  0  0
 37 36  1  0  0  0  0
 38 39  1  0  0  0  0
 39 34  2  0  0  0  0
M  END
>  <minimizedAffinity>
-8.80313778

$$$$

 OpenBabel09122221543D

 39 44  0  0  0  0  0  0  0  0999 V2000
    6.1710   -6.6320    0.5040 C   0  0  0  0  0  0  0  0  0  0  0  0
    6.0120   -5.9680   -0.7180 C   0  0  0  0  0  3  0  0  0  0  0  0
    7.0370   -5.1650   -1.2220 C   0  0  0  0  0  3  0  0  0  0  0  0
    8.2290   -4.9970   -0.5130 C   0  0  0  0  0  0  0  0  0  0  0  0
    8.3850   -5.6370    0.7160 C   0  0  0  0  0  3  0  0  0  0  0  0
    7.3590   -6.4460    1.2210 C   0  0  0  0  0  3  0  0  0  0  0  0
    2.0090  -10.5730    2.2400 C   0  0  0  0  0  0  0  0  0  0  0  0
    1.9500   -9.7810    3.3980 C   0  0  0  0  0  3  0  0  0  0  0  0
    2.7250   -8.6240    3.5530 C   0  0  0  0  0  3  0  0  0  0  0  0
    3.5810   -8.2730    2.5000 C   0  0  0  0  0  0  0  0  0  0  0  0
    3.6710   -9.0370    1.3400 C   0  0  0  0  0  0  0  0  0  0  0  0
    2.8810  -10.1900    1.2020 C   0  0  0  0  0  3  0  0  0  0  0  0
    4.5820   -8.4970    0.4690 N   0  0  0  0  0  0  0  0  0  0  0  0
    5.0950   -7.4440    1.0750 C   0  0  0  0  0  0  0  0  0  0  0  0
    4.4580   -7.2270    2.2890 N   0  0  0  0  0  0  0  0  0  0  0  0
    4.6450   -6.0660    3.1570 C   0  0  0  0  0  3  0  0  0  0  0  0
    4.2550   -4.7400    2.4790 C   0  0  0  0  0  2  0  0  0  0  0  0
    4.5120   -3.5490    3.4010 C   0  0  0  0  0  2  0  0  0  0  0  0
    3.8220   -3.7220    4.7510 C   0  0  0  0  0  2  0  0  0  0  0  0
    4.2270   -5.0290    5.4270 C   0  0  0  0  0  2  0  0  0  0  0  0
    3.9680   -6.2350    4.5260 C   0  0  0  0  0  2  0  0  0  0  0  0
    0.0400  -11.8160    2.7320 O   0  0  0  0  0  1  0  0  0  0  0  0
    1.1510  -11.8170    2.1130 C   0  0  0  0  0  0  0  0  0  0  0  0
    1.6000  -12.7660    1.3970 O   0  0  0  0  0  0  0  0  0  0  0  0
    9.1200   -4.1430   -1.1000 O   0  0  0  0  0  0  0  0  0  0  0  0
   10.3700   -3.8920   -0.4500 C   0  0  0  0  0  2  0  0  0  0  0  0
   11.2920   -2.9380   -1.1940 C   0  0  0  0  0  0  0  0  0  0  0  0
   12.2010   -3.4120   -2.1610 C   0  0  0  0  0  3  0  0  0  0  0  0
   13.0330   -2.5320   -2.8520 C   0  0  0  0  0  0  0  0  0  0  0  0
   14.1370   -3.1380   -4.0250 Cl  0  0  0  0  0  0  0  0  0  0  0  0
   12.9820   -1.1680   -2.5990 C   0  0  0  0  0  3  0  0  0  0  0  0
   12.0960   -0.6800   -1.6390 C   0  0  0  0  0  3  0  0  0  0  0  0
   11.2470   -1.5470   -0.9250 C   0  0  0  0  0  0  0  0  0  0  0  0
   10.3570   -0.9730    0.0930 C   0  0  0  0  0  0  0  0  0  0  0  0
    9.7240   -1.8000    1.0340 C   0  0  0  0  0  3  0  0  0  0  0  0
    8.8830   -1.2600    2.0080 C   0  0  0  0  0  3  0  0  0  0  0  0
    8.6680    0.1160    2.0560 C   0  0  0  0  0  3  0  0  0  0  0  0
    9.2920    0.9500    1.1330 C   0  0  0  0  0  3  0  0  0  0  0  0
   10.1330    0.4100    0.1560 C   0  0  0  0  0  3  0  0  0  0  0  0
  1 14  1  0  0  0  0
  1  6  1  0  0  0  0
  2  1  2  0  0  0  0
  3  2  1  0  0  0  0
  3  4  2  0  0  0  0
  4  5  1  0  0  0  0
  5  6  2  0  0  0  0
  7  8  1  0  0  0  0
  8  9  2  0  0  0  0
 10  9  1  0  0  0  0
 11 10  2  0  0  0  0
 12 11  1  0  0  0  0
 12  7  2  0  0  0  0
 13 14  2  0  0  0  0
 13 11  1  0  0  0  0
 14 15  1  0  0  0  0
 15 10  1  0  0  0  0
 15 16  1  0  0  0  0
 16 21  1  0  0  0  0
 17 16  1  0  0  0  0
 17 18  1  0  0  0  0
 18 19  1  0  0  0  0
 19 20  1  0  0  0  0
 21 20  1  0  0  0  0
 23  7  1  0  0  0  0
 23 22  1  0  0  0  0
 24 23  2  0  0  0  0
 25  4  1  0  0  0  0
 25 26  1  0  0  0  0
 27 33  1  0  0  0  0
 27 26  1  0  0  0  0
 28 27  2  0  0  0  0
 29 31  2  0  0  0  0
 29 28  1  0  0  0  0
 30 29  1  0  0  0  0
 31 32  1  0  0  0  0
 32 33  2  0  0  0  0
 33 34  1  0  0  0  0
 34 39  2  0  0  0  0
 34 35  1  0  0  0  0
 35 36  2  0  0  0  0
 36 37  1  0  0  0  0
 38 37  2  0  0  0  0
 39 38  1  0  0  0  0
M  END
>  <minimizedAffinity>
-8.74531841

$$$$
