
 OpenBabel09122222393D

 39 44  0  0  0  0  0  0  0  0999 V2000
    6.1710   -6.6320    0.5040 C   0  0  0  0  0  0  0  0  0  0  0  0
    6.0120   -5.9680   -0.7180 C   0  0  0  0  0  3  0  0  0  0  0  0
    7.0370   -5.1650   -1.2220 C   0  0  0  0  0  3  0  0  0  0  0  0
    8.2290   -4.9970   -0.5130 C   0  0  0  0  0  0  0  0  0  0  0  0
    8.3850   -5.6370    0.7160 C   0  0  0  0  0  3  0  0  0  0  0  0
    7.3590   -6.4460    1.2210 C   0  0  0  0  0  3  0  0  0  0  0  0
    2.0090  -10.5730    2.2400 C   0  0  0  0  0  0  0  0  0  0  0  0
    1.9500   -9.7810    3.3980 C   0  0  0  0  0  3  0  0  0  0  0  0
    2.7250   -8.6240    3.5530 C   0  0  0  0  0  3  0  0  0  0  0  0
    3.5810   -8.2730    2.5000 C   0  0  0  0  0  0  0  0  0  0  0  0
    3.6710   -9.0370    1.3400 C   0  0  0  0  0  0  0  0  0  0  0  0
    2.8810  -10.1900    1.2020 C   0  0  0  0  0  3  0  0  0  0  0  0
    4.5820   -8.4970    0.4690 N   0  0  0  0  0  0  0  0  0  0  0  0
    5.0950   -7.4440    1.0750 C   0  0  0  0  0  0  0  0  0  0  0  0
    4.4580   -7.2270    2.2890 N   0  0  0  0  0  0  0  0  0  0  0  0
    4.6450   -6.0660    3.1570 C   0  0  0  0  0  3  0  0  0  0  0  0
    4.2550   -4.7400    2.4790 C   0  0  0  0  0  2  0  0  0  0  0  0
    4.5120   -3.5490    3.4010 C   0  0  0  0  0  2  0  0  0  0  0  0
    3.8220   -3.7220    4.7510 C   0  0  0  0  0  2  0  0  0  0  0  0
    4.2270   -5.0290    5.4270 C   0  0  0  0  0  2  0  0  0  0  0  0
    3.9680   -6.2350    4.5260 C   0  0  0  0  0  2  0  0  0  0  0  0
    0.0400  -11.8160    2.7320 O   0  0  0  0  0  1  0  0  0  0  0  0
    1.1510  -11.8170    2.1130 C   0  0  0  0  0  0  0  0  0  0  0  0
    1.6000  -12.7660    1.3970 O   0  0  0  0  0  0  0  0  0  0  0  0
    9.1200   -4.1430   -1.1000 O   0  0  0  0  0  0  0  0  0  0  0  0
   10.3700   -3.8920   -0.4500 C   0  0  0  0  0  2  0  0  0  0  0  0
   11.2920   -2.9380   -1.1940 C   0  0  0  0  0  0  0  0  0  0  0  0
   12.2010   -3.4120   -2.1610 C   0  0  0  0  0  3  0  0  0  0  0  0
   13.0330   -2.5320   -2.8520 C   0  0  0  0  0  0  0  0  0  0  0  0
   14.1370   -3.1380   -4.0250 Cl  0  0  0  0  0  0  0  0  0  0  0  0
   12.9820   -1.1680   -2.5990 C   0  0  0  0  0  3  0  0  0  0  0  0
   12.0960   -0.6800   -1.6390 C   0  0  0  0  0  3  0  0  0  0  0  0
   11.2470   -1.5470   -0.9250 C   0  0  0  0  0  0  0  0  0  0  0  0
   10.3570   -0.9730    0.0930 C   0  0  0  0  0  0  0  0  0  0  0  0
    9.7240   -1.8000    1.0340 C   0  0  0  0  0  3  0  0  0  0  0  0
    8.8830   -1.2600    2.0080 C   0  0  0  0  0  3  0  0  0  0  0  0
    8.6680    0.1160    2.0560 C   0  0  0  0  0  3  0  0  0  0  0  0
    9.2920    0.9500    1.1330 C   0  0  0  0  0  3  0  0  0  0  0  0
   10.1330    0.4100    0.1560 C   0  0  0  0  0  3  0  0  0  0  0  0
  1 14  1  0  0  0  0
  1  6  1  0  0  0  0
  2  1  2  0  0  0  0
  3  2  1  0  0  0  0
  3  4  2  0  0  0  0
  4  5  1  0  0  0  0
  5  6  2  0  0  0  0
  7  8  1  0  0  0  0
  8  9  2  0  0  0  0
 10  9  1  0  0  0  0
 11 10  2  0  0  0  0
 12 11  1  0  0  0  0
 12  7  2  0  0  0  0
 13 14  2  0  0  0  0
 13 11  1  0  0  0  0
 14 15  1  0  0  0  0
 15 10  1  0  0  0  0
 15 16  1  0  0  0  0
 16 21  1  0  0  0  0
 17 16  1  0  0  0  0
 17 18  1  0  0  0  0
 18 19  1  0  0  0  0
 19 20  1  0  0  0  0
 21 20  1  0  0  0  0
 23  7  1  0  0  0  0
 23 22  1  0  0  0  0
 24 23  2  0  0  0  0
 25  4  1  0  0  0  0
 25 26  1  0  0  0  0
 27 33  1  0  0  0  0
 27 26  1  0  0  0  0
 28 27  2  0  0  0  0
 29 31  2  0  0  0  0
 29 28  1  0  0  0  0
 30 29  1  0  0  0  0
 31 32  1  0  0  0  0
 32 33  2  0  0  0  0
 33 34  1  0  0  0  0
 34 39  2  0  0  0  0
 34 35  1  0  0  0  0
 35 36  2  0  0  0  0
 36 37  1  0  0  0  0
 38 37  2  0  0  0  0
 39 38  1  0  0  0  0
M  END
>  <minimizedAffinity>
-8.74531841

$$$$
