
 OpenBabel09122222393D

 19 19  0  0  0  0  0  0  0  0999 V2000
    5.0040   -5.4430    3.0260 C   0  0  0  0  0  0  0  0  0  0  0  0
    4.3010   -4.3190    3.2210 C   0  0  0  0  0  3  0  0  0  0  0  0
    3.1240   -4.3640    4.0990 C   0  0  0  0  0  0  0  0  0  0  0  0
    2.4430   -3.3610    4.3040 O   0  0  0  0  0  0  0  0  0  0  0  0
    2.7820   -5.6550    4.7400 C   0  0  0  0  0  0  0  0  0  0  0  0
    3.5620   -6.7060    4.4600 C   0  0  0  0  0  0  0  0  0  0  0  0
    4.6590   -6.6530    3.6100 O   0  0  0  0  0  0  0  0  0  0  0  0
    3.2760   -8.0690    5.0920 C   0  0  0  0  0  0  0  0  0  0  0  0
    2.1130   -8.5220    4.8830 O   0  0  0  0  0  0  0  0  0  0  0  0
    4.2610   -8.5990    5.6830 O   0  0  0  0  0  1  0  0  0  0  0  0
    6.2050   -5.4520    2.1400 C   0  0  0  0  0  0  0  0  0  0  0  0
    7.1080   -4.6320    2.2070 O   0  0  0  0  0  0  0  0  0  0  0  0
    6.1430   -6.4820    1.2530 O   0  0  0  0  0  0  0  0  0  0  0  0
    5.4840   -7.6520   -0.6910 C   0  0  0  0  0  1  0  0  0  0  0  0
    5.7540   -6.2500   -0.1240 C   0  0  0  0  0  0  0  0  0  0  0  0
    6.8950   -5.6100   -0.9240 C   0  0  0  0  0  1  0  0  0  0  0  0
    4.4610   -5.4320   -0.2130 C   0  0  0  0  0  1  0  0  0  0  0  0
    1.6880   -5.6820    5.5800 O   0  0  0  0  0  0  0  0  0  0  0  0
    1.3340   -4.7710    5.5670 H   0  0  0  0  0  0  0  0  0  0  0  0
  1  2  2  0  0  0  0
  1  7  1  0  0  0  0
  2  3  1  0  0  0  0
  3  4  2  0  0  0  0
  3  5  1  0  0  0  0
  5 18  1  0  0  0  0
  6  5  2  0  0  0  0
  6  8  1  0  0  0  0
  7  6  1  0  0  0  0
  8 10  1  0  0  0  0
  9  8  2  0  0  0  0
 11 12  2  0  0  0  0
 11  1  1  0  0  0  0
 13 11  1  0  0  0  0
 14 15  1  0  0  0  0
 15 13  1  0  0  0  0
 16 15  1  0  0  0  0
 17 15  1  0  0  0  0
 19 18  1  0  0  0  0
M  END
>  <minimizedAffinity>
-5.32980824

$$$$
