
 OpenBabel09122222393D

 19 19  0  0  0  0  0  0  0  0999 V2000
    3.3280   -8.7790    2.0500 C   0  0  0  0  0  0  0  0  0  0  0  0
    3.6080   -8.1840    3.2180 C   0  0  0  0  0  3  0  0  0  0  0  0
    4.5820   -7.0830    3.2340 C   0  0  0  0  0  0  0  0  0  0  0  0
    4.8780   -6.5100    4.2800 O   0  0  0  0  0  0  0  0  0  0  0  0
    5.1940   -6.6760    1.9480 C   0  0  0  0  0  0  0  0  0  0  0  0
    4.8320   -7.3540    0.8520 C   0  0  0  0  0  0  0  0  0  0  0  0
    3.9270   -8.4080    0.8560 O   0  0  0  0  0  0  0  0  0  0  0  0
    5.4150   -6.9840   -0.5120 C   0  0  0  0  0  0  0  0  0  0  0  0
    5.5640   -7.9530   -1.3110 O   0  0  0  0  0  0  0  0  0  0  0  0
    5.6090   -5.7460   -0.6900 O   0  0  0  0  0  1  0  0  0  0  0  0
    2.3500   -9.9060    1.9800 C   0  0  0  0  0  0  0  0  0  0  0  0
    1.5260  -10.1490    2.8490 O   0  0  0  0  0  0  0  0  0  0  0  0
    2.5150  -10.6180    0.8330 O   0  0  0  0  0  0  0  0  0  0  0  0
    3.7190  -12.1460   -0.5080 C   0  0  0  0  0  1  0  0  0  0  0  0
    3.0610  -11.9600    0.8680 C   0  0  0  0  0  0  0  0  0  0  0  0
    1.9520  -13.0080    1.0240 C   0  0  0  0  0  1  0  0  0  0  0  0
    4.1400  -12.1010    1.9460 C   0  0  0  0  0  1  0  0  0  0  0  0
    6.0890   -5.6270    1.9700 O   0  0  0  0  0  0  0  0  0  0  0  0
    6.1430   -5.3570    2.9070 H   0  0  0  0  0  0  0  0  0  0  0  0
  1  2  2  0  0  0  0
  2  3  1  0  0  0  0
  3  4  2  0  0  0  0
  5 18  1  0  0  0  0
  5  3  1  0  0  0  0
  6  7  1  0  0  0  0
  6  5  2  0  0  0  0
  7  1  1  0  0  0  0
  8  6  1  0  0  0  0
  9  8  2  0  0  0  0
 10  8  1  0  0  0  0
 11  1  1  0  0  0  0
 11 12  2  0  0  0  0
 13 15  1  0  0  0  0
 13 11  1  0  0  0  0
 14 15  1  0  0  0  0
 15 16  1  0  0  0  0
 15 17  1  0  0  0  0
 18 19  1  0  0  0  0
M  END
>  <minimizedAffinity>
-5.87000895

$$$$
