
 OpenBabel09122222393D

 19 19  0  0  0  0  0  0  0  0999 V2000
    3.4870   -8.6460    1.3870 C   0  0  0  0  0  0  0  0  0  0  0  0
    4.1160   -8.6610    0.2040 C   0  0  0  0  0  3  0  0  0  0  0  0
    5.0670   -7.5840   -0.1050 C   0  0  0  0  0  0  0  0  0  0  0  0
    5.6640   -7.5500   -1.1790 O   0  0  0  0  0  0  0  0  0  0  0  0
    5.2940   -6.5400    0.9200 C   0  0  0  0  0  0  0  0  0  0  0  0
    4.6000   -6.6360    2.0610 C   0  0  0  0  0  0  0  0  0  0  0  0
    3.6860   -7.6480    2.3300 O   0  0  0  0  0  0  0  0  0  0  0  0
    4.7880   -5.6000    3.1690 C   0  0  0  0  0  0  0  0  0  0  0  0
    4.9650   -6.0790    4.3260 O   0  0  0  0  0  1  0  0  0  0  0  0
    4.8120   -4.3970    2.7750 O   0  0  0  0  0  0  0  0  0  0  0  0
    2.5080   -9.7140    1.7480 C   0  0  0  0  0  0  0  0  0  0  0  0
    1.9350   -9.7780    2.8250 O   0  0  0  0  0  0  0  0  0  0  0  0
    2.3590  -10.5980    0.7250 O   0  0  0  0  0  0  0  0  0  0  0  0
    3.1300  -12.4260   -0.5600 C   0  0  0  0  0  1  0  0  0  0  0  0
    2.7880  -11.9750    0.8690 C   0  0  0  0  0  0  0  0  0  0  0  0
    1.6530  -12.8580    1.4010 C   0  0  0  0  0  1  0  0  0  0  0  0
    4.0510  -12.0850    1.7300 C   0  0  0  0  0  1  0  0  0  0  0  0
    6.2050   -5.5460    0.6300 O   0  0  0  0  0  0  0  0  0  0  0  0
    6.5290   -5.7510   -0.2680 H   0  0  0  0  0  0  0  0  0  0  0  0
  1 11  1  0  0  0  0
  1  7  1  0  0  0  0
  2  1  2  0  0  0  0
  3  2  1  0  0  0  0
  3  5  1  0  0  0  0
  4  3  2  0  0  0  0
  5  6  2  0  0  0  0
  6  7  1  0  0  0  0
  6  8  1  0  0  0  0
  8  9  1  0  0  0  0
 10  8  2  0  0  0  0
 11 12  2  0  0  0  0
 13 15  1  0  0  0  0
 13 11  1  0  0  0  0
 14 15  1  0  0  0  0
 15 16  1  0  0  0  0
 15 17  1  0  0  0  0
 18  5  1  0  0  0  0
 19 18  1  0  0  0  0
M  END
>  <minimizedAffinity>
-5.45629692

$$$$
