
 OpenBabel09122222393D

 19 19  0  0  0  0  0  0  0  0999 V2000
    5.0880   -8.4520    3.0730 C   0  0  0  0  0  0  0  0  0  0  0  0
    4.4350   -7.5090    3.7670 C   0  0  0  0  0  3  0  0  0  0  0  0
    4.1520   -6.2220    3.1160 C   0  0  0  0  0  0  0  0  0  0  0  0
    3.5620   -5.3230    3.7120 O   0  0  0  0  0  0  0  0  0  0  0  0
    4.5910   -6.0390    1.7130 C   0  0  0  0  0  0  0  0  0  0  0  0
    5.2380   -7.0570    1.1330 C   0  0  0  0  0  0  0  0  0  0  0  0
    5.5190   -8.2600    1.7690 O   0  0  0  0  0  0  0  0  0  0  0  0
    5.7130   -6.9440   -0.3150 C   0  0  0  0  0  0  0  0  0  0  0  0
    5.4380   -7.9380   -1.0480 O   0  0  0  0  0  0  0  0  0  0  0  0
    6.2580   -5.8410   -0.6120 O   0  0  0  0  0  1  0  0  0  0  0  0
    5.4050   -9.7740    3.6890 C   0  0  0  0  0  0  0  0  0  0  0  0
    5.6210   -9.9380    4.8800 O   0  0  0  0  0  0  0  0  0  0  0  0
    5.4310  -10.7530    2.7450 O   0  0  0  0  0  0  0  0  0  0  0  0
    4.8220  -13.0080    2.3830 C   0  0  0  0  0  1  0  0  0  0  0  0
    4.2650  -11.5810    2.5040 C   0  0  0  0  0  0  0  0  0  0  0  0
    3.5820  -11.2090    1.1830 C   0  0  0  0  0  1  0  0  0  0  0  0
    3.2910  -11.5370    3.6860 C   0  0  0  0  0  1  0  0  0  0  0  0
    4.3000   -4.8350    1.1040 O   0  0  0  0  0  0  0  0  0  0  0  0
    3.8350   -4.3110    1.7850 H   0  0  0  0  0  0  0  0  0  0  0  0
  1 11  1  0  0  0  0
  1  2  2  0  0  0  0
  3  4  2  0  0  0  0
  3  2  1  0  0  0  0
  5  3  1  0  0  0  0
  6  5  2  0  0  0  0
  6  7  1  0  0  0  0
  7  1  1  0  0  0  0
  8  6  1  0  0  0  0
  9  8  2  0  0  0  0
 10  8  1  0  0  0  0
 11 12  2  0  0  0  0
 13 11  1  0  0  0  0
 14 15  1  0  0  0  0
 15 13  1  0  0  0  0
 15 17  1  0  0  0  0
 16 15  1  0  0  0  0
 18  5  1  0  0  0  0
 18 19  1  0  0  0  0
M  END
>  <minimizedAffinity>
-5.39762831

$$$$
