
 OpenBabel09122222393D

 19 19  0  0  0  0  0  0  0  0999 V2000
    4.4660   -8.5480    2.5520 C   0  0  0  0  0  0  0  0  0  0  0  0
    3.5370   -8.8270    1.6270 C   0  0  0  0  0  3  0  0  0  0  0  0
    3.1330  -10.2260    1.4310 C   0  0  0  0  0  0  0  0  0  0  0  0
    2.2900  -10.5350    0.5910 O   0  0  0  0  0  0  0  0  0  0  0  0
    3.7670  -11.2600    2.2820 C   0  0  0  0  0  0  0  0  0  0  0  0
    4.6850  -10.8510    3.1660 C   0  0  0  0  0  0  0  0  0  0  0  0
    5.0730   -9.5260    3.3250 O   0  0  0  0  0  0  0  0  0  0  0  0
    5.3750  -11.8590    4.0850 C   0  0  0  0  0  0  0  0  0  0  0  0
    5.3200  -11.5850    5.3190 O   0  0  0  0  0  1  0  0  0  0  0  0
    5.8520  -12.8740    3.4980 O   0  0  0  0  0  0  0  0  0  0  0  0
    4.9140   -7.1430    2.7870 C   0  0  0  0  0  0  0  0  0  0  0  0
    5.0910   -6.6600    3.8940 O   0  0  0  0  0  0  0  0  0  0  0  0
    5.0830   -6.4860    1.6070 O   0  0  0  0  0  0  0  0  0  0  0  0
    6.1700   -6.1700   -0.4670 C   0  0  0  0  0  1  0  0  0  0  0  0
    6.4060   -6.3010    1.0460 C   0  0  0  0  0  0  0  0  0  0  0  0
    7.2930   -7.5270    1.2970 C   0  0  0  0  0  1  0  0  0  0  0  0
    7.0570   -5.0090    1.5500 C   0  0  0  0  0  1  0  0  0  0  0  0
    3.3650  -12.5680    2.1060 O   0  0  0  0  0  0  0  0  0  0  0  0
    2.6990  -12.5360    1.3920 H   0  0  0  0  0  0  0  0  0  0  0  0
  1 11  1  0  0  0  0
  1  7  1  0  0  0  0
  2  1  2  0  0  0  0
  3  2  1  0  0  0  0
  3  5  1  0  0  0  0
  4  3  2  0  0  0  0
  5  6  2  0  0  0  0
  6  7  1  0  0  0  0
  6  8  1  0  0  0  0
  8  9  1  0  0  0  0
 10  8  2  0  0  0  0
 11 12  2  0  0  0  0
 13 11  1  0  0  0  0
 14 15  1  0  0  0  0
 15 16  1  0  0  0  0
 15 17  1  0  0  0  0
 15 13  1  0  0  0  0
 18  5  1  0  0  0  0
 19 18  1  0  0  0  0
M  END
>  <minimizedAffinity>
-5.40086699

$$$$
