
 OpenBabel09122217393D

 19 19  0  0  0  0  0  0  0  0999 V2000
    5.1360   -5.6440    2.6740 C   0  0  0  0  0  0  0  0  0  0  0  0
    4.8010   -5.6360    1.3760 C   0  0  0  0  0  3  0  0  0  0  0  0
    4.6100   -6.9200    0.6880 C   0  0  0  0  0  0  0  0  0  0  0  0
    4.3080   -6.9660   -0.5030 O   0  0  0  0  0  0  0  0  0  0  0  0
    4.7840   -8.1640    1.4720 C   0  0  0  0  0  0  0  0  0  0  0  0
    5.1240   -8.0360    2.7610 C   0  0  0  0  0  0  0  0  0  0  0  0
    5.3230   -6.8150    3.3930 O   0  0  0  0  0  0  0  0  0  0  0  0
    5.3120   -9.2760    3.6360 C   0  0  0  0  0  0  0  0  0  0  0  0
    6.0590  -10.1700    3.1430 O   0  0  0  0  0  0  0  0  0  0  0  0
    4.7520   -9.2180    4.7690 O   0  0  0  0  0  1  0  0  0  0  0  0
    5.3460   -4.3670    3.4190 C   0  0  0  0  0  0  0  0  0  0  0  0
    6.4110   -4.0360    3.9170 O   0  0  0  0  0  0  0  0  0  0  0  0
    4.1950   -3.6440    3.4710 O   0  0  0  0  0  0  0  0  0  0  0  0
    2.2420   -2.6480    4.3520 C   0  0  0  0  0  1  0  0  0  0  0  0
    3.4370   -3.5480    4.7030 C   0  0  0  0  0  0  0  0  0  0  0  0
    4.2540   -2.8660    5.8060 C   0  0  0  0  0  1  0  0  0  0  0  0
    2.9040   -4.9150    5.1440 C   0  0  0  0  0  1  0  0  0  0  0  0
    4.5810   -9.3640    0.8220 O   0  0  0  0  0  0  0  0  0  0  0  0
    4.3550   -9.1210   -0.0960 H   0  0  0  0  0  0  0  0  0  0  0  0
  1  7  1  0  0  0  0
  1 11  1  0  0  0  0
  2  1  2  0  0  0  0
  3  2  1  0  0  0  0
  3  5  1  0  0  0  0
  4  3  2  0  0  0  0
  5  6  2  0  0  0  0
  6  7  1  0  0  0  0
  6  8  1  0  0  0  0
  8 10  1  0  0  0  0
  9  8  2  0  0  0  0
 11 13  1  0  0  0  0
 11 12  2  0  0  0  0
 13 15  1  0  0  0  0
 14 15  1  0  0  0  0
 15 17  1  0  0  0  0
 15 16  1  0  0  0  0
 18  5  1  0  0  0  0
 19 18  1  0  0  0  0
M  END
>  <minimizedAffinity>
-6.10569286

$$$$

 OpenBabel09122217393D

 19 19  0  0  0  0  0  0  0  0999 V2000
    3.3280   -8.7790    2.0500 C   0  0  0  0  0  0  0  0  0  0  0  0
    3.6080   -8.1840    3.2180 C   0  0  0  0  0  3  0  0  0  0  0  0
    4.5820   -7.0830    3.2340 C   0  0  0  0  0  0  0  0  0  0  0  0
    4.8780   -6.5100    4.2800 O   0  0  0  0  0  0  0  0  0  0  0  0
    5.1940   -6.6760    1.9480 C   0  0  0  0  0  0  0  0  0  0  0  0
    4.8320   -7.3540    0.8520 C   0  0  0  0  0  0  0  0  0  0  0  0
    3.9270   -8.4080    0.8560 O   0  0  0  0  0  0  0  0  0  0  0  0
    5.4150   -6.9840   -0.5120 C   0  0  0  0  0  0  0  0  0  0  0  0
    5.5640   -7.9530   -1.3110 O   0  0  0  0  0  0  0  0  0  0  0  0
    5.6090   -5.7460   -0.6900 O   0  0  0  0  0  1  0  0  0  0  0  0
    2.3500   -9.9060    1.9800 C   0  0  0  0  0  0  0  0  0  0  0  0
    1.5260  -10.1490    2.8490 O   0  0  0  0  0  0  0  0  0  0  0  0
    2.5150  -10.6180    0.8330 O   0  0  0  0  0  0  0  0  0  0  0  0
    3.7190  -12.1460   -0.5080 C   0  0  0  0  0  1  0  0  0  0  0  0
    3.0610  -11.9600    0.8680 C   0  0  0  0  0  0  0  0  0  0  0  0
    1.9520  -13.0080    1.0240 C   0  0  0  0  0  1  0  0  0  0  0  0
    4.1400  -12.1010    1.9460 C   0  0  0  0  0  1  0  0  0  0  0  0
    6.0890   -5.6270    1.9700 O   0  0  0  0  0  0  0  0  0  0  0  0
    6.1430   -5.3570    2.9070 H   0  0  0  0  0  0  0  0  0  0  0  0
  1  2  2  0  0  0  0
  2  3  1  0  0  0  0
  3  4  2  0  0  0  0
  5 18  1  0  0  0  0
  5  3  1  0  0  0  0
  6  7  1  0  0  0  0
  6  5  2  0  0  0  0
  7  1  1  0  0  0  0
  8  6  1  0  0  0  0
  9  8  2  0  0  0  0
 10  8  1  0  0  0  0
 11  1  1  0  0  0  0
 11 12  2  0  0  0  0
 13 15  1  0  0  0  0
 13 11  1  0  0  0  0
 14 15  1  0  0  0  0
 15 16  1  0  0  0  0
 15 17  1  0  0  0  0
 18 19  1  0  0  0  0
M  END
>  <minimizedAffinity>
-5.87000895

$$$$

 OpenBabel09122217393D

 19 19  0  0  0  0  0  0  0  0999 V2000
    4.1550   -7.1090    2.9210 C   0  0  0  0  0  0  0  0  0  0  0  0
    3.5780   -8.2300    2.4670 C   0  0  0  0  0  3  0  0  0  0  0  0
    3.9500   -8.7270    1.1340 C   0  0  0  0  0  0  0  0  0  0  0  0
    3.4450   -9.7470    0.6700 O   0  0  0  0  0  0  0  0  0  0  0  0
    4.9610   -7.9650    0.3640 C   0  0  0  0  0  0  0  0  0  0  0  0
    5.4580   -6.8580    0.9290 C   0  0  0  0  0  0  0  0  0  0  0  0
    5.0800   -6.3880    2.1810 O   0  0  0  0  0  0  0  0  0  0  0  0
    6.5120   -6.0260    0.1980 C   0  0  0  0  0  0  0  0  0  0  0  0
    7.5470   -5.7590    0.8740 O   0  0  0  0  0  1  0  0  0  0  0  0
    6.2430   -5.7710   -1.0120 O   0  0  0  0  0  0  0  0  0  0  0  0
    3.8080   -6.5600    4.2660 C   0  0  0  0  0  0  0  0  0  0  0  0
    4.0550   -7.1290    5.3180 O   0  0  0  0  0  0  0  0  0  0  0  0
    3.1770   -5.3610    4.1490 O   0  0  0  0  0  0  0  0  0  0  0  0
    3.0660   -3.0010    4.1050 C   0  0  0  0  0  1  0  0  0  0  0  0
    3.6630   -4.1970    4.8630 C   0  0  0  0  0  0  0  0  0  0  0  0
    5.1920   -4.1020    4.7980 C   0  0  0  0  0  1  0  0  0  0  0  0
    3.1460   -4.1650    6.3050 C   0  0  0  0  0  1  0  0  0  0  0  0
    5.3200   -8.4520   -0.8760 O   0  0  0  0  0  0  0  0  0  0  0  0
    4.7810   -9.2570   -0.9990 H   0  0  0  0  0  0  0  0  0  0  0  0
  1 11  1  0  0  0  0
  2  1  2  0  0  0  0
  3  2  1  0  0  0  0
  4  3  2  0  0  0  0
  5  6  2  0  0  0  0
  5  3  1  0  0  0  0
  6  7  1  0  0  0  0
  7  1  1  0  0  0  0
  8  9  1  0  0  0  0
  8  6  1  0  0  0  0
 10  8  2  0  0  0  0
 11 12  2  0  0  0  0
 13 11  1  0  0  0  0
 13 15  1  0  0  0  0
 14 15  1  0  0  0  0
 15 17  1  0  0  0  0
 16 15  1  0  0  0  0
 18  5  1  0  0  0  0
 19 18  1  0  0  0  0
M  END
>  <minimizedAffinity>
-5.77598858

$$$$

 OpenBabel09122217393D

 19 19  0  0  0  0  0  0  0  0999 V2000
    4.1950   -9.1880    2.1380 C   0  0  0  0  0  0  0  0  0  0  0  0
    3.1490   -8.9600    2.9440 C   0  0  0  0  0  3  0  0  0  0  0  0
    1.9440   -9.7860    2.7900 C   0  0  0  0  0  0  0  0  0  0  0  0
    0.9570   -9.6110    3.5010 O   0  0  0  0  0  0  0  0  0  0  0  0
    1.9540  -10.8460    1.7550 C   0  0  0  0  0  0  0  0  0  0  0  0
    3.0600  -10.9690    1.0120 C   0  0  0  0  0  0  0  0  0  0  0  0
    4.1840  -10.1650    1.1530 O   0  0  0  0  0  0  0  0  0  0  0  0
    3.1460  -12.0460   -0.0700 C   0  0  0  0  0  0  0  0  0  0  0  0
    4.1910  -12.7580   -0.0350 O   0  0  0  0  0  1  0  0  0  0  0  0
    2.1280  -12.1330   -0.8170 O   0  0  0  0  0  0  0  0  0  0  0  0
    5.4410   -8.3730    2.2500 C   0  0  0  0  0  0  0  0  0  0  0  0
    6.0890   -8.2560    3.2790 O   0  0  0  0  0  0  0  0  0  0  0  0
    5.7390   -7.7800    1.0620 O   0  0  0  0  0  0  0  0  0  0  0  0
    5.3020   -6.0500   -0.4870 C   0  0  0  0  0  1  0  0  0  0  0  0
    5.7790   -6.3360    0.9460 C   0  0  0  0  0  0  0  0  0  0  0  0
    7.2080   -5.8050    1.1010 C   0  0  0  0  0  1  0  0  0  0  0  0
    4.8080   -5.6660    1.9240 C   0  0  0  0  0  1  0  0  0  0  0  0
    0.8260  -11.6310    1.6340 O   0  0  0  0  0  0  0  0  0  0  0  0
    0.2040  -11.2890    2.3050 H   0  0  0  0  0  0  0  0  0  0  0  0
  1 11  1  0  0  0  0
  1  2  2  0  0  0  0
  3  2  1  0  0  0  0
  3  4  2  0  0  0  0
  5  3  1  0  0  0  0
  6  7  1  0  0  0  0
  6  5  2  0  0  0  0
  7  1  1  0  0  0  0
  8  9  1  0  0  0  0
  8  6  1  0  0  0  0
 10  8  2  0  0  0  0
 11 12  2  0  0  0  0
 13 11  1  0  0  0  0
 14 15  1  0  0  0  0
 15 13  1  0  0  0  0
 15 16  1  0  0  0  0
 15 17  1  0  0  0  0
 18  5  1  0  0  0  0
 18 19  1  0  0  0  0
M  END
>  <minimizedAffinity>
-5.76994419

$$$$

 OpenBabel09122217393D

 19 19  0  0  0  0  0  0  0  0999 V2000
    5.1070   -6.1070    2.5270 C   0  0  0  0  0  0  0  0  0  0  0  0
    5.7160   -5.6040    1.4450 C   0  0  0  0  0  3  0  0  0  0  0  0
    5.7300   -6.3970    0.2080 C   0  0  0  0  0  0  0  0  0  0  0  0
    6.2800   -5.9810   -0.8090 O   0  0  0  0  0  0  0  0  0  0  0  0
    5.0520   -7.7140    0.2180 C   0  0  0  0  0  0  0  0  0  0  0  0
    4.4850   -8.1050    1.3650 C   0  0  0  0  0  0  0  0  0  0  0  0
    4.5000   -7.3540    2.5340 O   0  0  0  0  0  0  0  0  0  0  0  0
    3.7600   -9.4490    1.4480 C   0  0  0  0  0  0  0  0  0  0  0  0
    4.3050  -10.3060    2.2030 O   0  0  0  0  0  1  0  0  0  0  0  0
    2.6700   -9.5070    0.8070 O   0  0  0  0  0  0  0  0  0  0  0  0
    5.0690   -5.3440    3.8100 C   0  0  0  0  0  0  0  0  0  0  0  0
    5.6860   -4.3080    4.0050 O   0  0  0  0  0  0  0  0  0  0  0  0
    4.2710   -5.9660    4.7190 O   0  0  0  0  0  0  0  0  0  0  0  0
    3.4510   -4.7280    6.5570 C   0  0  0  0  0  1  0  0  0  0  0  0
    3.0600   -5.3300    5.1980 C   0  0  0  0  0  0  0  0  0  0  0  0
    1.9440   -6.3570    5.4220 C   0  0  0  0  0  1  0  0  0  0  0  0
    2.6170   -4.1930    4.2710 C   0  0  0  0  0  1  0  0  0  0  0  0
    5.0510   -8.4410   -0.9550 O   0  0  0  0  0  0  0  0  0  0  0  0
    5.5460   -7.8940   -1.5950 H   0  0  0  0  0  0  0  0  0  0  0  0
  1  7  1  0  0  0  0
  1 11  1  0  0  0  0
  2  1  2  0  0  0  0
  3  5  1  0  0  0  0
  3  2  1  0  0  0  0
  4  3  2  0  0  0  0
  5  6  2  0  0  0  0
  6  8  1  0  0  0  0
  6  7  1  0  0  0  0
  8  9  1  0  0  0  0
 10  8  2  0  0  0  0
 11 12  2  0  0  0  0
 11 13  1  0  0  0  0
 13 15  1  0  0  0  0
 15 16  1  0  0  0  0
 15 14  1  0  0  0  0
 17 15  1  0  0  0  0
 18  5  1  0  0  0  0
 19 18  1  0  0  0  0
M  END
>  <minimizedAffinity>
-5.72516537

$$$$

 OpenBabel09122217393D

 19 19  0  0  0  0  0  0  0  0999 V2000
    3.4870   -8.6460    1.3870 C   0  0  0  0  0  0  0  0  0  0  0  0
    4.1160   -8.6610    0.2040 C   0  0  0  0  0  3  0  0  0  0  0  0
    5.0670   -7.5840   -0.1050 C   0  0  0  0  0  0  0  0  0  0  0  0
    5.6640   -7.5500   -1.1790 O   0  0  0  0  0  0  0  0  0  0  0  0
    5.2940   -6.5400    0.9200 C   0  0  0  0  0  0  0  0  0  0  0  0
    4.6000   -6.6360    2.0610 C   0  0  0  0  0  0  0  0  0  0  0  0
    3.6860   -7.6480    2.3300 O   0  0  0  0  0  0  0  0  0  0  0  0
    4.7880   -5.6000    3.1690 C   0  0  0  0  0  0  0  0  0  0  0  0
    4.9650   -6.0790    4.3260 O   0  0  0  0  0  1  0  0  0  0  0  0
    4.8120   -4.3970    2.7750 O   0  0  0  0  0  0  0  0  0  0  0  0
    2.5080   -9.7140    1.7480 C   0  0  0  0  0  0  0  0  0  0  0  0
    1.9350   -9.7780    2.8250 O   0  0  0  0  0  0  0  0  0  0  0  0
    2.3590  -10.5980    0.7250 O   0  0  0  0  0  0  0  0  0  0  0  0
    3.1300  -12.4260   -0.5600 C   0  0  0  0  0  1  0  0  0  0  0  0
    2.7880  -11.9750    0.8690 C   0  0  0  0  0  0  0  0  0  0  0  0
    1.6530  -12.8580    1.4010 C   0  0  0  0  0  1  0  0  0  0  0  0
    4.0510  -12.0850    1.7300 C   0  0  0  0  0  1  0  0  0  0  0  0
    6.2050   -5.5460    0.6300 O   0  0  0  0  0  0  0  0  0  0  0  0
    6.5290   -5.7510   -0.2680 H   0  0  0  0  0  0  0  0  0  0  0  0
  1 11  1  0  0  0  0
  1  7  1  0  0  0  0
  2  1  2  0  0  0  0
  3  2  1  0  0  0  0
  3  5  1  0  0  0  0
  4  3  2  0  0  0  0
  5  6  2  0  0  0  0
  6  7  1  0  0  0  0
  6  8  1  0  0  0  0
  8  9  1  0  0  0  0
 10  8  2  0  0  0  0
 11 12  2  0  0  0  0
 13 15  1  0  0  0  0
 13 11  1  0  0  0  0
 14 15  1  0  0  0  0
 15 16  1  0  0  0  0
 15 17  1  0  0  0  0
 18  5  1  0  0  0  0
 19 18  1  0  0  0  0
M  END
>  <minimizedAffinity>
-5.45629692

$$$$

 OpenBabel09122217393D

 19 19  0  0  0  0  0  0  0  0999 V2000
    5.3070   -8.6350    2.7910 C   0  0  0  0  0  0  0  0  0  0  0  0
    5.1950   -8.8670    1.4760 C   0  0  0  0  0  3  0  0  0  0  0  0
    4.9760   -7.7290    0.5730 C   0  0  0  0  0  0  0  0  0  0  0  0
    4.8600   -7.8910   -0.6400 O   0  0  0  0  0  0  0  0  0  0  0  0
    4.9050   -6.3730    1.1650 C   0  0  0  0  0  0  0  0  0  0  0  0
    5.0280   -6.2760    2.4940 C   0  0  0  0  0  0  0  0  0  0  0  0
    5.2120   -7.3640    3.3380 O   0  0  0  0  0  0  0  0  0  0  0  0
    4.9750   -4.9080    3.1750 C   0  0  0  0  0  0  0  0  0  0  0  0
    6.0820   -4.4870    3.6190 O   0  0  0  0  0  1  0  0  0  0  0  0
    3.8430   -4.3420    3.1460 O   0  0  0  0  0  0  0  0  0  0  0  0
    5.5250   -9.7570    3.7520 C   0  0  0  0  0  0  0  0  0  0  0  0
    5.5050   -9.6280    4.9660 O   0  0  0  0  0  0  0  0  0  0  0  0
    5.7580  -10.9220    3.0880 O   0  0  0  0  0  0  0  0  0  0  0  0
    5.5430  -13.0060    4.1800 C   0  0  0  0  0  1  0  0  0  0  0  0
    4.8430  -12.0390    3.2130 C   0  0  0  0  0  0  0  0  0  0  0  0
    4.6470  -12.7490    1.8680 C   0  0  0  0  0  1  0  0  0  0  0  0
    3.5100  -11.6090    3.8340 C   0  0  0  0  0  1  0  0  0  0  0  0
    4.7220   -5.3090    0.3060 O   0  0  0  0  0  0  0  0  0  0  0  0
    4.6630   -5.7070   -0.5840 H   0  0  0  0  0  0  0  0  0  0  0  0
  1  7  1  0  0  0  0
  1 11  1  0  0  0  0
  2  1  2  0  0  0  0
  3  5  1  0  0  0  0
  3  2  1  0  0  0  0
  4  3  2  0  0  0  0
  5  6  2  0  0  0  0
  6  8  1  0  0  0  0
  6  7  1  0  0  0  0
  8  9  1  0  0  0  0
 10  8  2  0  0  0  0
 11 12  2  0  0  0  0
 13 15  1  0  0  0  0
 13 11  1  0  0  0  0
 15 17  1  0  0  0  0
 15 14  1  0  0  0  0
 16 15  1  0  0  0  0
 18  5  1  0  0  0  0
 19 18  1  0  0  0  0
M  END
>  <minimizedAffinity>
-5.43475103

$$$$

 OpenBabel09122217393D

 19 19  0  0  0  0  0  0  0  0999 V2000
    4.4660   -8.5480    2.5520 C   0  0  0  0  0  0  0  0  0  0  0  0
    3.5370   -8.8270    1.6270 C   0  0  0  0  0  3  0  0  0  0  0  0
    3.1330  -10.2260    1.4310 C   0  0  0  0  0  0  0  0  0  0  0  0
    2.2900  -10.5350    0.5910 O   0  0  0  0  0  0  0  0  0  0  0  0
    3.7670  -11.2600    2.2820 C   0  0  0  0  0  0  0  0  0  0  0  0
    4.6850  -10.8510    3.1660 C   0  0  0  0  0  0  0  0  0  0  0  0
    5.0730   -9.5260    3.3250 O   0  0  0  0  0  0  0  0  0  0  0  0
    5.3750  -11.8590    4.0850 C   0  0  0  0  0  0  0  0  0  0  0  0
    5.3200  -11.5850    5.3190 O   0  0  0  0  0  1  0  0  0  0  0  0
    5.8520  -12.8740    3.4980 O   0  0  0  0  0  0  0  0  0  0  0  0
    4.9140   -7.1430    2.7870 C   0  0  0  0  0  0  0  0  0  0  0  0
    5.0910   -6.6600    3.8940 O   0  0  0  0  0  0  0  0  0  0  0  0
    5.0830   -6.4860    1.6070 O   0  0  0  0  0  0  0  0  0  0  0  0
    6.1700   -6.1700   -0.4670 C   0  0  0  0  0  1  0  0  0  0  0  0
    6.4060   -6.3010    1.0460 C   0  0  0  0  0  0  0  0  0  0  0  0
    7.2930   -7.5270    1.2970 C   0  0  0  0  0  1  0  0  0  0  0  0
    7.0570   -5.0090    1.5500 C   0  0  0  0  0  1  0  0  0  0  0  0
    3.3650  -12.5680    2.1060 O   0  0  0  0  0  0  0  0  0  0  0  0
    2.6990  -12.5360    1.3920 H   0  0  0  0  0  0  0  0  0  0  0  0
  1 11  1  0  0  0  0
  1  7  1  0  0  0  0
  2  1  2  0  0  0  0
  3  2  1  0  0  0  0
  3  5  1  0  0  0  0
  4  3  2  0  0  0  0
  5  6  2  0  0  0  0
  6  7  1  0  0  0  0
  6  8  1  0  0  0  0
  8  9  1  0  0  0  0
 10  8  2  0  0  0  0
 11 12  2  0  0  0  0
 13 11  1  0  0  0  0
 14 15  1  0  0  0  0
 15 16  1  0  0  0  0
 15 17  1  0  0  0  0
 15 13  1  0  0  0  0
 18  5  1  0  0  0  0
 19 18  1  0  0  0  0
M  END
>  <minimizedAffinity>
-5.40086699

$$$$

 OpenBabel09122217393D

 19 19  0  0  0  0  0  0  0  0999 V2000
    5.0880   -8.4520    3.0730 C   0  0  0  0  0  0  0  0  0  0  0  0
    4.4350   -7.5090    3.7670 C   0  0  0  0  0  3  0  0  0  0  0  0
    4.1520   -6.2220    3.1160 C   0  0  0  0  0  0  0  0  0  0  0  0
    3.5620   -5.3230    3.7120 O   0  0  0  0  0  0  0  0  0  0  0  0
    4.5910   -6.0390    1.7130 C   0  0  0  0  0  0  0  0  0  0  0  0
    5.2380   -7.0570    1.1330 C   0  0  0  0  0  0  0  0  0  0  0  0
    5.5190   -8.2600    1.7690 O   0  0  0  0  0  0  0  0  0  0  0  0
    5.7130   -6.9440   -0.3150 C   0  0  0  0  0  0  0  0  0  0  0  0
    5.4380   -7.9380   -1.0480 O   0  0  0  0  0  0  0  0  0  0  0  0
    6.2580   -5.8410   -0.6120 O   0  0  0  0  0  1  0  0  0  0  0  0
    5.4050   -9.7740    3.6890 C   0  0  0  0  0  0  0  0  0  0  0  0
    5.6210   -9.9380    4.8800 O   0  0  0  0  0  0  0  0  0  0  0  0
    5.4310  -10.7530    2.7450 O   0  0  0  0  0  0  0  0  0  0  0  0
    4.8220  -13.0080    2.3830 C   0  0  0  0  0  1  0  0  0  0  0  0
    4.2650  -11.5810    2.5040 C   0  0  0  0  0  0  0  0  0  0  0  0
    3.5820  -11.2090    1.1830 C   0  0  0  0  0  1  0  0  0  0  0  0
    3.2910  -11.5370    3.6860 C   0  0  0  0  0  1  0  0  0  0  0  0
    4.3000   -4.8350    1.1040 O   0  0  0  0  0  0  0  0  0  0  0  0
    3.8350   -4.3110    1.7850 H   0  0  0  0  0  0  0  0  0  0  0  0
  1 11  1  0  0  0  0
  1  2  2  0  0  0  0
  3  4  2  0  0  0  0
  3  2  1  0  0  0  0
  5  3  1  0  0  0  0
  6  5  2  0  0  0  0
  6  7  1  0  0  0  0
  7  1  1  0  0  0  0
  8  6  1  0  0  0  0
  9  8  2  0  0  0  0
 10  8  1  0  0  0  0
 11 12  2  0  0  0  0
 13 11  1  0  0  0  0
 14 15  1  0  0  0  0
 15 13  1  0  0  0  0
 15 17  1  0  0  0  0
 16 15  1  0  0  0  0
 18  5  1  0  0  0  0
 18 19  1  0  0  0  0
M  END
>  <minimizedAffinity>
-5.39762831

$$$$

 OpenBabel09122217393D

 19 19  0  0  0  0  0  0  0  0999 V2000
    5.0040   -5.4430    3.0260 C   0  0  0  0  0  0  0  0  0  0  0  0
    4.3010   -4.3190    3.2210 C   0  0  0  0  0  3  0  0  0  0  0  0
    3.1240   -4.3640    4.0990 C   0  0  0  0  0  0  0  0  0  0  0  0
    2.4430   -3.3610    4.3040 O   0  0  0  0  0  0  0  0  0  0  0  0
    2.7820   -5.6550    4.7400 C   0  0  0  0  0  0  0  0  0  0  0  0
    3.5620   -6.7060    4.4600 C   0  0  0  0  0  0  0  0  0  0  0  0
    4.6590   -6.6530    3.6100 O   0  0  0  0  0  0  0  0  0  0  0  0
    3.2760   -8.0690    5.0920 C   0  0  0  0  0  0  0  0  0  0  0  0
    2.1130   -8.5220    4.8830 O   0  0  0  0  0  0  0  0  0  0  0  0
    4.2610   -8.5990    5.6830 O   0  0  0  0  0  1  0  0  0  0  0  0
    6.2050   -5.4520    2.1400 C   0  0  0  0  0  0  0  0  0  0  0  0
    7.1080   -4.6320    2.2070 O   0  0  0  0  0  0  0  0  0  0  0  0
    6.1430   -6.4820    1.2530 O   0  0  0  0  0  0  0  0  0  0  0  0
    5.4840   -7.6520   -0.6910 C   0  0  0  0  0  1  0  0  0  0  0  0
    5.7540   -6.2500   -0.1240 C   0  0  0  0  0  0  0  0  0  0  0  0
    6.8950   -5.6100   -0.9240 C   0  0  0  0  0  1  0  0  0  0  0  0
    4.4610   -5.4320   -0.2130 C   0  0  0  0  0  1  0  0  0  0  0  0
    1.6880   -5.6820    5.5800 O   0  0  0  0  0  0  0  0  0  0  0  0
    1.3340   -4.7710    5.5670 H   0  0  0  0  0  0  0  0  0  0  0  0
  1  2  2  0  0  0  0
  1  7  1  0  0  0  0
  2  3  1  0  0  0  0
  3  4  2  0  0  0  0
  3  5  1  0  0  0  0
  5 18  1  0  0  0  0
  6  5  2  0  0  0  0
  6  8  1  0  0  0  0
  7  6  1  0  0  0  0
  8 10  1  0  0  0  0
  9  8  2  0  0  0  0
 11 12  2  0  0  0  0
 11  1  1  0  0  0  0
 13 11  1  0  0  0  0
 14 15  1  0  0  0  0
 15 13  1  0  0  0  0
 16 15  1  0  0  0  0
 17 15  1  0  0  0  0
 19 18  1  0  0  0  0
M  END
>  <minimizedAffinity>
-5.32980824

$$$$
