
 OpenBabel09122222393D

 29 31  0  0  0  0  0  0  0  0999 V2000
    6.3880   -5.2700    2.1120 C   0  0  0  0  0  0  0  0  0  0  0  0
    6.5890   -4.1890    2.8880 C   0  0  0  0  0  0  0  0  0  0  0  0
    7.7050   -3.3820    2.8080 N   0  0  0  0  0  0  0  0  0  0  0  0
    8.5680   -3.6520    1.8880 C   0  0  0  0  0  0  0  0  0  0  0  0
    8.4360   -4.6700    1.0020 N   0  0  0  0  0  0  0  0  0  0  0  0
    7.4120   -5.5640    1.0880 C   0  0  0  0  0  0  0  0  0  0  0  0
    7.3580   -6.5400    0.3490 O   0  0  0  0  0  0  0  0  0  0  0  0
    9.1230   -4.8160    0.2800 H   0  0  0  0  0  0  0  0  0  0  0  0
    5.5480   -3.7410    3.8390 C   0  0  0  0  0  0  0  0  0  0  0  0
    4.2710   -3.3550    3.4080 C   0  0  0  0  0  3  0  0  0  0  0  0
    3.3200   -2.9140    4.3320 C   0  0  0  0  0  3  0  0  0  0  0  0
    3.6380   -2.8680    5.6890 C   0  0  0  0  0  0  0  0  0  0  0  0
    2.3510   -2.2690    6.9370 Br  0  0  0  0  0  0  0  0  0  0  0  0
    4.8970   -3.2630    6.1330 C   0  0  0  0  0  3  0  0  0  0  0  0
    5.8490   -3.7020    5.2090 C   0  0  0  0  0  3  0  0  0  0  0  0
    4.1020   -6.8520    2.1570 N   0  0  0  0  0  1  0  0  0  0  0  0
    5.1390   -6.1340    2.1370 C   0  0  0  0  0  2  0  0  0  0  0  0
    9.9780   -2.6690    1.6850 S   0  0  0  0  0  0  0  0  0  0  0  0
    9.5870   -1.6840    0.2180 C   0  0  0  0  0  2  0  0  0  0  0  0
    9.8110   -0.1920    0.3390 C   0  0  0  0  0  0  0  0  0  0  0  0
    9.3570    0.4450    1.5140 C   0  0  0  0  0  3  0  0  0  0  0  0
    9.4940    1.8200    1.6920 C   0  0  0  0  0  3  0  0  0  0  0  0
   10.0940    2.5880    0.7030 C   0  0  0  0  0  3  0  0  0  0  0  0
   10.5680    1.9770   -0.4560 C   0  0  0  0  0  3  0  0  0  0  0  0
   10.4530    0.5850   -0.6540 C   0  0  0  0  0  0  0  0  0  0  0  0
   11.0130    0.0020   -1.9380 C   0  0  0  0  0  0  0  0  0  0  0  0
   10.0610   -0.5760   -2.7160 F   0  0  0  0  0  0  0  0  0  0  0  0
   11.6110    0.9410   -2.7270 F   0  0  0  0  0  0  0  0  0  0  0  0
   11.9680   -0.9460   -1.7300 F   0  0  0  0  0  0  0  0  0  0  0  0
  1 17  1  0  0  0  0
  1  2  2  0  0  0  0
  2  9  1  0  0  0  0
  3  2  1  0  0  0  0
  4  3  2  0  0  0  0
  5  6  1  0  0  0  0
  5  4  1  0  0  0  0
  6  1  1  0  0  0  0
  7  6  2  0  0  0  0
  8  5  1  0  0  0  0
  9 15  1  0  0  0  0
 10  9  2  0  0  0  0
 10 11  1  0  0  0  0
 11 12  2  0  0  0  0
 12 14  1  0  0  0  0
 12 13  1  0  0  0  0
 15 14  2  0  0  0  0
 17 16  1  0  0  0  0
 18  4  1  0  0  0  0
 19 20  1  0  0  0  0
 19 18  1  0  0  0  0
 20 21  1  0  0  0  0
 21 22  2  0  0  0  0
 23 22  1  0  0  0  0
 24 23  2  0  0  0  0
 25 24  1  0  0  0  0
 25 20  2  0  0  0  0
 26 29  1  0  0  0  0
 26 25  1  0  0  0  0
 27 26  1  0  0  0  0
 28 26  1  0  0  0  0
M  END
>  <minimizedAffinity>
-7.33631897

$$$$
