
 OpenBabel09122222393D

 29 31  0  0  0  0  0  0  0  0999 V2000
    8.5680   -3.7000    1.1420 C   0  0  0  0  0  0  0  0  0  0  0  0
    9.5750   -2.8460    1.4000 C   0  0  0  0  0  0  0  0  0  0  0  0
    9.7570   -2.2170    2.6130 N   0  0  0  0  0  0  0  0  0  0  0  0
    8.9460   -2.5210    3.5680 C   0  0  0  0  0  0  0  0  0  0  0  0
    7.9400   -3.4220    3.4480 N   0  0  0  0  0  0  0  0  0  0  0  0
    7.6420   -4.0040    2.2530 C   0  0  0  0  0  0  0  0  0  0  0  0
    6.6670   -4.7360    2.1290 O   0  0  0  0  0  0  0  0  0  0  0  0
    7.3560   -3.6500    4.2360 H   0  0  0  0  0  0  0  0  0  0  0  0
   10.6280   -2.5980    0.3910 C   0  0  0  0  0  0  0  0  0  0  0  0
   10.4940   -1.6020   -0.5870 C   0  0  0  0  0  3  0  0  0  0  0  0
   11.4990   -1.4110   -1.5390 C   0  0  0  0  0  3  0  0  0  0  0  0
   12.6430   -2.2060   -1.5110 C   0  0  0  0  0  0  0  0  0  0  0  0
   13.9990   -1.9470   -2.8020 Br  0  0  0  0  0  0  0  0  0  0  0  0
   12.7980   -3.1880   -0.5360 C   0  0  0  0  0  3  0  0  0  0  0  0
   11.7930   -3.3800    0.4150 C   0  0  0  0  0  3  0  0  0  0  0  0
    8.2320   -5.0830   -1.2470 N   0  0  0  0  0  1  0  0  0  0  0  0
    8.3840   -4.4560   -0.1630 C   0  0  0  0  0  2  0  0  0  0  0  0
    9.1240   -1.8130    5.1380 S   0  0  0  0  0  0  0  0  0  0  0  0
    7.9650   -2.7630    6.1530 C   0  0  0  0  0  2  0  0  0  0  0  0
    6.9380   -1.9580    6.9200 C   0  0  0  0  0  0  0  0  0  0  0  0
    7.3990   -0.8570    7.6750 C   0  0  0  0  0  3  0  0  0  0  0  0
    6.5240   -0.0830    8.4360 C   0  0  0  0  0  3  0  0  0  0  0  0
    5.1700   -0.3870    8.4530 C   0  0  0  0  0  3  0  0  0  0  0  0
    4.6900   -1.4560    7.6980 C   0  0  0  0  0  3  0  0  0  0  0  0
    5.5540   -2.2470    6.9100 C   0  0  0  0  0  0  0  0  0  0  0  0
    4.9420   -3.3790    6.1060 C   0  0  0  0  0  0  0  0  0  0  0  0
    3.6020   -3.4980    6.2960 F   0  0  0  0  0  0  0  0  0  0  0  0
    5.1100   -3.2220    4.7610 F   0  0  0  0  0  0  0  0  0  0  0  0
    5.4820   -4.5970    6.3910 F   0  0  0  0  0  0  0  0  0  0  0  0
  1  2  2  0  0  0  0
  1  6  1  0  0  0  0
  2  3  1  0  0  0  0
  3  4  2  0  0  0  0
  4 18  1  0  0  0  0
  5  4  1  0  0  0  0
  5  8  1  0  0  0  0
  6  5  1  0  0  0  0
  7  6  2  0  0  0  0
  9 15  1  0  0  0  0
  9  2  1  0  0  0  0
 10  9  2  0  0  0  0
 11 12  2  0  0  0  0
 11 10  1  0  0  0  0
 12 14  1  0  0  0  0
 13 12  1  0  0  0  0
 14 15  2  0  0  0  0
 16 17  1  0  0  0  0
 17  1  1  0  0  0  0
 18 19  1  0  0  0  0
 19 20  1  0  0  0  0
 20 21  1  0  0  0  0
 21 22  2  0  0  0  0
 22 23  1  0  0  0  0
 24 23  2  0  0  0  0
 25 20  2  0  0  0  0
 25 24  1  0  0  0  0
 26 27  1  0  0  0  0
 26 29  1  0  0  0  0
 26 25  1  0  0  0  0
 28 26  1  0  0  0  0
M  END
>  <minimizedAffinity>
-7.13495588

$$$$
