
 OpenBabel09122222393D

 29 31  0  0  0  0  0  0  0  0999 V2000
    6.7780   -5.5180    0.1750 C   0  0  0  0  0  0  0  0  0  0  0  0
    6.8190   -5.1030    1.4550 C   0  0  0  0  0  0  0  0  0  0  0  0
    7.8060   -4.2870    1.9660 N   0  0  0  0  0  0  0  0  0  0  0  0
    8.6990   -3.8490    1.1460 C   0  0  0  0  0  0  0  0  0  0  0  0
    8.7170   -4.1390   -0.1790 N   0  0  0  0  0  0  0  0  0  0  0  0
    7.8340   -5.0170   -0.7290 C   0  0  0  0  0  0  0  0  0  0  0  0
    7.9220   -5.3530   -1.9040 O   0  0  0  0  0  0  0  0  0  0  0  0
    9.4180   -3.7420   -0.7830 H   0  0  0  0  0  0  0  0  0  0  0  0
    5.7240   -5.4390    2.3910 C   0  0  0  0  0  0  0  0  0  0  0  0
    5.4330   -6.7650    2.7410 C   0  0  0  0  0  3  0  0  0  0  0  0
    4.3760   -7.0470    3.6110 C   0  0  0  0  0  3  0  0  0  0  0  0
    3.6140   -6.0060    4.1390 C   0  0  0  0  0  0  0  0  0  0  0  0
    2.1820   -6.3900    5.3120 Br  0  0  0  0  0  0  0  0  0  0  0  0
    3.9010   -4.6830    3.8130 C   0  0  0  0  0  3  0  0  0  0  0  0
    4.9570   -4.4010    2.9430 C   0  0  0  0  0  3  0  0  0  0  0  0
    4.7450   -7.0630   -0.9270 N   0  0  0  0  0  1  0  0  0  0  0  0
    5.6670   -6.3620   -0.4270 C   0  0  0  0  0  2  0  0  0  0  0  0
    9.9520   -2.7850    1.6890 S   0  0  0  0  0  0  0  0  0  0  0  0
   11.2020   -2.9200    0.3880 C   0  0  0  0  0  2  0  0  0  0  0  0
   11.1790   -1.8390   -0.6720 C   0  0  0  0  0  0  0  0  0  0  0  0
   10.3380   -0.7260   -0.4550 C   0  0  0  0  0  3  0  0  0  0  0  0
   10.2340    0.2970   -1.3950 C   0  0  0  0  0  3  0  0  0  0  0  0
   10.9720    0.2350   -2.5690 C   0  0  0  0  0  3  0  0  0  0  0  0
   11.8240   -0.8450   -2.7950 C   0  0  0  0  0  3  0  0  0  0  0  0
   11.9570   -1.8870   -1.8520 C   0  0  0  0  0  0  0  0  0  0  0  0
   12.9230   -3.0140   -2.1720 C   0  0  0  0  0  0  0  0  0  0  0  0
   12.3120   -4.2240   -2.2570 F   0  0  0  0  0  0  0  0  0  0  0  0
   13.5590   -2.8400   -3.3670 F   0  0  0  0  0  0  0  0  0  0  0  0
   13.9200   -3.1470   -1.2550 F   0  0  0  0  0  0  0  0  0  0  0  0
  1  2  2  0  0  0  0
  2  3  1  0  0  0  0
  2  9  1  0  0  0  0
  4 18  1  0  0  0  0
  4  3  2  0  0  0  0
  5  4  1  0  0  0  0
  6  5  1  0  0  0  0
  6  1  1  0  0  0  0
  7  6  2  0  0  0  0
  8  5  1  0  0  0  0
  9 10  2  0  0  0  0
  9 15  1  0  0  0  0
 10 11  1  0  0  0  0
 11 12  2  0  0  0  0
 12 13  1  0  0  0  0
 14 12  1  0  0  0  0
 15 14  2  0  0  0  0
 16 17  1  0  0  0  0
 17  1  1  0  0  0  0
 19 18  1  0  0  0  0
 20 21  1  0  0  0  0
 20 19  1  0  0  0  0
 22 21  2  0  0  0  0
 23 22  1  0  0  0  0
 24 23  2  0  0  0  0
 24 25  1  0  0  0  0
 25 20  2  0  0  0  0
 26 25  1  0  0  0  0
 26 29  1  0  0  0  0
 27 26  1  0  0  0  0
 28 26  1  0  0  0  0
M  END
>  <minimizedAffinity>
-7.97276545

$$$$
