
 OpenBabel09122222393D

 29 31  0  0  0  0  0  0  0  0999 V2000
   10.7560   -0.1230    5.7460 C   0  0  0  0  0  0  0  0  0  0  0  0
   10.4720    1.0630    5.1780 C   0  0  0  0  0  0  0  0  0  0  0  0
    9.9360    1.2000    3.9140 N   0  0  0  0  0  0  0  0  0  0  0  0
    9.6330    0.1200    3.2770 C   0  0  0  0  0  0  0  0  0  0  0  0
    9.8040   -1.1280    3.7790 N   0  0  0  0  0  0  0  0  0  0  0  0
   10.4200   -1.3380    4.9750 C   0  0  0  0  0  0  0  0  0  0  0  0
   10.6650   -2.4710    5.3730 O   0  0  0  0  0  0  0  0  0  0  0  0
    9.5190   -1.9380    3.2530 H   0  0  0  0  0  0  0  0  0  0  0  0
   10.6420    2.3220    5.9350 C   0  0  0  0  0  0  0  0  0  0  0  0
   11.8630    3.0090    5.9620 C   0  0  0  0  0  3  0  0  0  0  0  0
   11.9940    4.1840    6.7080 C   0  0  0  0  0  3  0  0  0  0  0  0
   10.9040    4.6800    7.4200 C   0  0  0  0  0  0  0  0  0  0  0  0
   11.0830    6.2670    8.4310 Br  0  0  0  0  0  0  0  0  0  0  0  0
    9.6790    4.0170    7.3900 C   0  0  0  0  0  3  0  0  0  0  0  0
    9.5490    2.8420    6.6450 C   0  0  0  0  0  3  0  0  0  0  0  0
   11.7220   -0.4490    8.3330 N   0  0  0  0  0  1  0  0  0  0  0  0
   11.2840   -0.3010    7.1600 C   0  0  0  0  0  2  0  0  0  0  0  0
    8.9160    0.1950    1.7030 S   0  0  0  0  0  0  0  0  0  0  0  0
    9.6950   -1.1860    0.8290 C   0  0  0  0  0  2  0  0  0  0  0  0
   10.4320   -0.8350   -0.4460 C   0  0  0  0  0  0  0  0  0  0  0  0
   10.4400    0.5180   -0.8480 C   0  0  0  0  0  3  0  0  0  0  0  0
   11.0680    0.9210   -2.0240 C   0  0  0  0  0  3  0  0  0  0  0  0
   11.7080   -0.0180   -2.8220 C   0  0  0  0  0  3  0  0  0  0  0  0
   11.7300   -1.3570   -2.4340 C   0  0  0  0  0  3  0  0  0  0  0  0
   11.1130   -1.7870   -1.2400 C   0  0  0  0  0  0  0  0  0  0  0  0
   11.2030   -3.2610   -0.8860 C   0  0  0  0  0  0  0  0  0  0  0  0
    9.9880   -3.8670   -0.8350 F   0  0  0  0  0  0  0  0  0  0  0  0
   11.9330   -3.9770   -1.7900 F   0  0  0  0  0  0  0  0  0  0  0  0
   11.8010   -3.4920    0.3150 F   0  0  0  0  0  0  0  0  0  0  0  0
  1 17  1  0  0  0  0
  2  1  2  0  0  0  0
  2  9  1  0  0  0  0
  3  2  1  0  0  0  0
  4  5  1  0  0  0  0
  4  3  2  0  0  0  0
  5  6  1  0  0  0  0
  6  7  2  0  0  0  0
  6  1  1  0  0  0  0
  8  5  1  0  0  0  0
  9 10  2  0  0  0  0
  9 15  1  0  0  0  0
 10 11  1  0  0  0  0
 11 12  2  0  0  0  0
 12 13  1  0  0  0  0
 14 12  1  0  0  0  0
 15 14  2  0  0  0  0
 17 16  1  0  0  0  0
 18  4  1  0  0  0  0
 19 18  1  0  0  0  0
 20 19  1  0  0  0  0
 21 20  1  0  0  0  0
 22 21  2  0  0  0  0
 23 24  2  0  0  0  0
 23 22  1  0  0  0  0
 24 25  1  0  0  0  0
 25 26  1  0  0  0  0
 25 20  2  0  0  0  0
 26 27  1  0  0  0  0
 26 29  1  0  0  0  0
 28 26  1  0  0  0  0
M  END
>  <minimizedAffinity>
-7.04613972

$$$$
