
 OpenBabel09122222393D

 29 31  0  0  0  0  0  0  0  0999 V2000
    6.4610   -5.2740    2.0750 C   0  0  0  0  0  0  0  0  0  0  0  0
    6.6460   -4.1790    2.8330 C   0  0  0  0  0  0  0  0  0  0  0  0
    7.7410   -3.3460    2.7250 N   0  0  0  0  0  0  0  0  0  0  0  0
    8.5960   -3.6070    1.7960 C   0  0  0  0  0  0  0  0  0  0  0  0
    8.4760   -4.6390    0.9250 N   0  0  0  0  0  0  0  0  0  0  0  0
    7.4760   -5.5570    1.0390 C   0  0  0  0  0  0  0  0  0  0  0  0
    7.4340   -6.5430    0.3130 O   0  0  0  0  0  0  0  0  0  0  0  0
    9.1550   -4.7790    0.1950 H   0  0  0  0  0  0  0  0  0  0  0  0
    5.6090   -3.7430    3.7940 C   0  0  0  0  0  0  0  0  0  0  0  0
    4.3230   -3.3770    3.3770 C   0  0  0  0  0  3  0  0  0  0  0  0
    3.3750   -2.9480    4.3100 C   0  0  0  0  0  3  0  0  0  0  0  0
    3.7060   -2.8940    5.6630 C   0  0  0  0  0  0  0  0  0  0  0  0
    2.4250   -2.3100    6.9230 Br  0  0  0  0  0  0  0  0  0  0  0  0
    4.9760   -3.2700    6.0950 C   0  0  0  0  0  3  0  0  0  0  0  0
    5.9240   -3.6980    5.1610 C   0  0  0  0  0  3  0  0  0  0  0  0
    4.2140   -6.9100    2.1750 N   0  0  0  0  0  1  0  0  0  0  0  0
    5.2330   -6.1680    2.1300 C   0  0  0  0  0  2  0  0  0  0  0  0
    9.9790   -2.5930    1.5590 S   0  0  0  0  0  0  0  0  0  0  0  0
   10.5110   -3.0070   -0.1210 C   0  0  0  0  0  2  0  0  0  0  0  0
   10.9390   -1.8430   -0.9890 C   0  0  0  0  0  0  0  0  0  0  0  0
   10.2060   -0.6400   -0.8810 C   0  0  0  0  0  3  0  0  0  0  0  0
   10.5140    0.4690   -1.6670 C   0  0  0  0  0  3  0  0  0  0  0  0
   11.5640    0.4040   -2.5720 C   0  0  0  0  0  3  0  0  0  0  0  0
   12.3130   -0.7670   -2.6810 C   0  0  0  0  0  3  0  0  0  0  0  0
   12.0300   -1.8980   -1.8870 C   0  0  0  0  0  0  0  0  0  0  0  0
   12.9100   -3.1230   -2.0580 C   0  0  0  0  0  0  0  0  0  0  0  0
   12.2050   -4.2390   -2.3810 F   0  0  0  0  0  0  0  0  0  0  0  0
   13.8360   -2.9740   -3.0490 F   0  0  0  0  0  0  0  0  0  0  0  0
   13.6310   -3.4300   -0.9440 F   0  0  0  0  0  0  0  0  0  0  0  0
  1 17  1  0  0  0  0
  1  2  2  0  0  0  0
  2  9  1  0  0  0  0
  3  2  1  0  0  0  0
  4  3  2  0  0  0  0
  5  6  1  0  0  0  0
  5  4  1  0  0  0  0
  6  1  1  0  0  0  0
  7  6  2  0  0  0  0
  8  5  1  0  0  0  0
  9 15  1  0  0  0  0
 10  9  2  0  0  0  0
 10 11  1  0  0  0  0
 11 12  2  0  0  0  0
 12 14  1  0  0  0  0
 12 13  1  0  0  0  0
 15 14  2  0  0  0  0
 17 16  1  0  0  0  0
 18  4  1  0  0  0  0
 19 18  1  0  0  0  0
 20 21  1  0  0  0  0
 20 19  1  0  0  0  0
 22 21  2  0  0  0  0
 23 22  1  0  0  0  0
 24 23  2  0  0  0  0
 24 25  1  0  0  0  0
 25 20  2  0  0  0  0
 26 25  1  0  0  0  0
 26 29  1  0  0  0  0
 27 26  1  0  0  0  0
 28 26  1  0  0  0  0
M  END
>  <minimizedAffinity>
-7.89579725

$$$$
