
 OpenBabel09122222393D

 29 31  0  0  0  0  0  0  0  0999 V2000
   10.2110    2.3860    2.5230 C   0  0  0  0  0  0  0  0  0  0  0  0
   10.9620    3.1590    1.7180 C   0  0  0  0  0  0  0  0  0  0  0  0
   11.2560    2.8440    0.4070 N   0  0  0  0  0  0  0  0  0  0  0  0
   10.7200    1.7780   -0.0820 C   0  0  0  0  0  0  0  0  0  0  0  0
    9.8870    0.9630    0.6110 N   0  0  0  0  0  0  0  0  0  0  0  0
    9.6360    1.1590    1.9360 C   0  0  0  0  0  0  0  0  0  0  0  0
    8.9660    0.3590    2.5790 O   0  0  0  0  0  0  0  0  0  0  0  0
    9.4680    0.1600    0.1710 H   0  0  0  0  0  0  0  0  0  0  0  0
   11.4570    4.4730    2.1820 C   0  0  0  0  0  0  0  0  0  0  0  0
   12.6780    4.6070    2.8550 C   0  0  0  0  0  3  0  0  0  0  0  0
   13.1030    5.8620    3.3000 C   0  0  0  0  0  3  0  0  0  0  0  0
   12.3140    6.9870    3.0640 C   0  0  0  0  0  0  0  0  0  0  0  0
   12.8890    8.6830    3.6690 Br  0  0  0  0  0  0  0  0  0  0  0  0
   11.1050    6.8720    2.3820 C   0  0  0  0  0  3  0  0  0  0  0  0
   10.6800    5.6170    1.9390 C   0  0  0  0  0  3  0  0  0  0  0  0
    9.4940    3.0390    5.1300 N   0  0  0  0  0  1  0  0  0  0  0  0
    9.8190    2.7430    3.9480 C   0  0  0  0  0  2  0  0  0  0  0  0
   10.9980    1.3260   -1.7300 S   0  0  0  0  0  0  0  0  0  0  0  0
   10.4650   -0.4030   -1.7800 C   0  0  0  0  0  2  0  0  0  0  0  0
   11.5650   -1.4340   -1.9110 C   0  0  0  0  0  0  0  0  0  0  0  0
   12.6370   -1.1420   -2.7820 C   0  0  0  0  0  3  0  0  0  0  0  0
   13.6740   -2.0510   -2.9850 C   0  0  0  0  0  3  0  0  0  0  0  0
   13.6670   -3.2680   -2.3170 C   0  0  0  0  0  3  0  0  0  0  0  0
   12.6290   -3.5680   -1.4360 C   0  0  0  0  0  3  0  0  0  0  0  0
   11.5750   -2.6590   -1.2040 C   0  0  0  0  0  0  0  0  0  0  0  0
   10.4970   -3.0620   -0.2140 C   0  0  0  0  0  0  0  0  0  0  0  0
    9.2690   -3.1680   -0.7850 F   0  0  0  0  0  0  0  0  0  0  0  0
   10.7390   -4.2730    0.3660 F   0  0  0  0  0  0  0  0  0  0  0  0
   10.3650   -2.1910    0.8250 F   0  0  0  0  0  0  0  0  0  0  0  0
  1 17  1  0  0  0  0
  2  9  1  0  0  0  0
  2  1  2  0  0  0  0
  3  2  1  0  0  0  0
  4  3  2  0  0  0  0
  4  5  1  0  0  0  0
  5  6  1  0  0  0  0
  6  1  1  0  0  0  0
  6  7  2  0  0  0  0
  8  5  1  0  0  0  0
  9 10  1  0  0  0  0
 10 11  2  0  0  0  0
 12 11  1  0  0  0  0
 12 13  1  0  0  0  0
 14 12  2  0  0  0  0
 15  9  2  0  0  0  0
 15 14  1  0  0  0  0
 17 16  1  0  0  0  0
 18  4  1  0  0  0  0
 19 18  1  0  0  0  0
 20 19  1  0  0  0  0
 20 25  1  0  0  0  0
 21 20  2  0  0  0  0
 22 21  1  0  0  0  0
 22 23  2  0  0  0  0
 23 24  1  0  0  0  0
 24 25  2  0  0  0  0
 25 26  1  0  0  0  0
 26 28  1  0  0  0  0
 26 29  1  0  0  0  0
 27 26  1  0  0  0  0
M  END
>  <minimizedAffinity>
-7.19951773

$$$$
