
 OpenBabel09132204463D

 27 29  0  0  0  0  0  0  0  0999 V2000
    3.6620   -6.1180    4.1580 C   0  0  0  0  0  0  0  0  0  0  0  0
    4.5630   -6.8880    3.5130 C   0  0  0  0  0  2  0  0  0  0  0  0
    5.2810   -6.5210    2.3410 C   0  0  0  0  0  0  0  0  0  0  0  0
    5.1120   -6.8960    1.0130 C   0  0  0  0  0  3  0  0  0  0  0  0
    6.0860   -6.2200    0.2380 C   0  0  0  0  0  3  0  0  0  0  0  0
    6.8090   -5.4400    1.1130 C   0  0  0  0  0  0  0  0  0  0  0  0
    6.3110   -5.6070    2.3730 O   0  0  0  0  0  0  0  0  0  0  0  0
    7.9330   -4.5150    0.9860 C   0  0  0  0  0  0  0  0  0  0  0  0
    8.3520   -3.7340    2.0780 C   0  0  0  0  0  3  0  0  0  0  0  0
    9.4310   -2.8510    1.9640 C   0  0  0  0  0  3  0  0  0  0  0  0
   10.1140   -2.7310    0.7570 C   0  0  0  0  0  3  0  0  0  0  0  0
    9.7140   -3.4960   -0.3370 C   0  0  0  0  0  3  0  0  0  0  0  0
    8.6370   -4.3760   -0.2170 C   0  0  0  0  0  0  0  0  0  0  0  0
    8.2950   -5.0870   -1.3030 F   0  0  0  0  0  0  0  0  0  0  0  0
    3.2250   -4.8930    3.6690 N   0  0  0  0  0  4  0  0  0  0  0  0
    3.3750   -3.6150    4.1590 C   0  0  0  0  0  0  0  0  0  0  0  0
    2.6700   -2.7090    3.7060 O   0  0  0  0  0  0  0  0  0  0  0  0
    2.5840   -4.9230    2.8880 H   0  0  0  0  0  0  0  0  0  0  0  0
    4.4300   -3.2560    5.1310 C   0  0  0  0  0  0  0  0  0  0  0  0
    4.1170   -2.3470    6.1500 C   0  0  0  0  0  3  0  0  0  0  0  0
    5.1070   -1.9250    7.0390 C   0  0  0  0  0  3  0  0  0  0  0  0
    6.4130   -2.3980    6.9020 C   0  0  0  0  0  3  0  0  0  0  0  0
    6.7310   -3.2850    5.8730 C   0  0  0  0  0  3  0  0  0  0  0  0
    5.7460   -3.7040    4.9790 C   0  0  0  0  0  3  0  0  0  0  0  0
    1.8630   -7.1790    5.3180 O   0  0  0  0  0  0  0  0  0  0  0  0
    3.0770   -6.8330    5.4170 C   0  0  0  0  0  0  0  0  0  0  0  0
    3.8810   -6.9450    6.3860 O   0  0  0  0  0  1  0  0  0  0  0  0
  1 26  1  0  0  0  0
  2  1  1  0  0  0  0
  3  7  1  0  0  0  0
  3  2  1  0  0  0  0
  4  3  2  0  0  0  0
  5  4  1  0  0  0  0
  5  6  2  0  0  0  0
  6  7  1  0  0  0  0
  8  6  1  0  0  0  0
  8  9  1  0  0  0  0
 10  9  2  0  0  0  0
 11 10  1  0  0  0  0
 12 13  1  0  0  0  0
 12 11  2  0  0  0  0
 13  8  2  0  0  0  0
 14 13  1  0  0  0  0
 15  1  2  0  0  0  0
 15 16  1  0  0  0  0
 16 19  1  0  0  0  0
 17 16  2  0  0  0  0
 18 15  1  0  0  0  0
 19 20  1  0  0  0  0
 20 21  2  0  0  0  0
 22 21  1  0  0  0  0
 23 22  2  0  0  0  0
 24 19  2  0  0  0  0
 24 23  1  0  0  0  0
 25 26  2  0  0  0  0
 26 27  1  0  0  0  0
M  END
>  <minimizedAffinity>
-7.34627867

$$$$
