
 OpenBabel09132204463D

 27 29  0  0  0  0  0  0  0  0999 V2000
    3.9730   -5.8580    4.8090 C   0  0  0  0  0  0  0  0  0  0  0  0
    3.9680   -6.4580    3.6010 C   0  0  0  0  0  2  0  0  0  0  0  0
    5.0310   -6.4330    2.6570 C   0  0  0  0  0  0  0  0  0  0  0  0
    5.4000   -7.3440    1.6750 C   0  0  0  0  0  3  0  0  0  0  0  0
    6.5250   -6.8230    0.9910 C   0  0  0  0  0  3  0  0  0  0  0  0
    6.7990   -5.6010    1.5650 C   0  0  0  0  0  0  0  0  0  0  0  0
    5.8890   -5.3600    2.5530 O   0  0  0  0  0  0  0  0  0  0  0  0
    7.8010   -4.5600    1.3490 C   0  0  0  0  0  0  0  0  0  0  0  0
    8.5480   -4.5130    0.1590 C   0  0  0  0  0  3  0  0  0  0  0  0
    9.5050   -3.5150   -0.0570 C   0  0  0  0  0  3  0  0  0  0  0  0
    9.7340   -2.5440    0.9140 C   0  0  0  0  0  3  0  0  0  0  0  0
    9.0050   -2.5730    2.1000 C   0  0  0  0  0  3  0  0  0  0  0  0
    8.0510   -3.5710    2.3090 C   0  0  0  0  0  0  0  0  0  0  0  0
    7.3780   -3.5510    3.4710 F   0  0  0  0  0  0  0  0  0  0  0  0
    4.9960   -5.0180    5.2340 N   0  0  0  0  0  4  0  0  0  0  0  0
    5.0250   -3.6570    5.4360 C   0  0  0  0  0  0  0  0  0  0  0  0
    6.1150   -3.0870    5.5500 O   0  0  0  0  0  0  0  0  0  0  0  0
    5.9170   -5.4270    5.2960 H   0  0  0  0  0  0  0  0  0  0  0  0
    3.7980   -2.8560    5.6400 C   0  0  0  0  0  0  0  0  0  0  0  0
    2.8650   -2.7880    4.5970 C   0  0  0  0  0  3  0  0  0  0  0  0
    1.7330   -1.9810    4.7240 C   0  0  0  0  0  3  0  0  0  0  0  0
    1.5390   -1.2310    5.8840 C   0  0  0  0  0  3  0  0  0  0  0  0
    2.4790   -1.2800    6.9130 C   0  0  0  0  0  3  0  0  0  0  0  0
    3.6150   -2.0800    6.7880 C   0  0  0  0  0  3  0  0  0  0  0  0
    2.6620   -5.7440    6.8040 O   0  0  0  0  0  1  0  0  0  0  0  0
    2.6430   -6.1040    5.5900 C   0  0  0  0  0  0  0  0  0  0  0  0
    1.7280   -6.6620    4.9190 O   0  0  0  0  0  0  0  0  0  0  0  0
  1 15  2  0  0  0  0
  1 26  1  0  0  0  0
  2  1  1  0  0  0  0
  3  2  1  0  0  0  0
  4  3  2  0  0  0  0
  5  6  2  0  0  0  0
  5  4  1  0  0  0  0
  6  7  1  0  0  0  0
  7  3  1  0  0  0  0
  8  6  1  0  0  0  0
  8 13  1  0  0  0  0
  9  8  2  0  0  0  0
 10  9  1  0  0  0  0
 10 11  2  0  0  0  0
 11 12  1  0  0  0  0
 12 13  2  0  0  0  0
 13 14  1  0  0  0  0
 15 18  1  0  0  0  0
 15 16  1  0  0  0  0
 16 17  2  0  0  0  0
 16 19  1  0  0  0  0
 19 24  1  0  0  0  0
 20 21  1  0  0  0  0
 20 19  2  0  0  0  0
 21 22  2  0  0  0  0
 22 23  1  0  0  0  0
 24 23  2  0  0  0  0
 26 25  1  0  0  0  0
 27 26  2  0  0  0  0
M  END
>  <minimizedAffinity>
-6.36739779

$$$$
