
 OpenBabel09132204463D

 27 29  0  0  0  0  0  0  0  0999 V2000
    5.4530   -5.5850    2.4170 C   0  0  0  0  0  0  0  0  0  0  0  0
    6.6150   -5.8570    1.7890 C   0  0  0  0  0  2  0  0  0  0  0  0
    7.5930   -4.9000    1.3990 C   0  0  0  0  0  0  0  0  0  0  0  0
    8.4420   -4.8590    0.3000 C   0  0  0  0  0  3  0  0  0  0  0  0
    9.2030   -3.6680    0.3760 C   0  0  0  0  0  3  0  0  0  0  0  0
    8.7840   -3.0080    1.5100 C   0  0  0  0  0  0  0  0  0  0  0  0
    7.8030   -3.7400    2.1130 O   0  0  0  0  0  0  0  0  0  0  0  0
    9.1430   -1.7540    2.1670 C   0  0  0  0  0  0  0  0  0  0  0  0
    9.0900   -0.5330    1.4720 C   0  0  0  0  0  3  0  0  0  0  0  0
    9.4270    0.6730    2.0980 C   0  0  0  0  0  3  0  0  0  0  0  0
    9.8240    0.6810    3.4320 C   0  0  0  0  0  3  0  0  0  0  0  0
    9.8840   -0.5180    4.1390 C   0  0  0  0  0  3  0  0  0  0  0  0
    9.5450   -1.7170    3.5090 C   0  0  0  0  0  0  0  0  0  0  0  0
    9.6220   -2.8420    4.2380 F   0  0  0  0  0  0  0  0  0  0  0  0
    5.0020   -4.2910    2.6490 N   0  0  0  0  0  4  0  0  0  0  0  0
    4.0680   -3.8020    3.5330 C   0  0  0  0  0  0  0  0  0  0  0  0
    3.6300   -2.6580    3.3760 O   0  0  0  0  0  0  0  0  0  0  0  0
    5.3050   -3.5860    1.9920 H   0  0  0  0  0  0  0  0  0  0  0  0
    3.6460   -4.5480    4.7380 C   0  0  0  0  0  0  0  0  0  0  0  0
    2.3720   -5.1290    4.7520 C   0  0  0  0  0  3  0  0  0  0  0  0
    1.9110   -5.7750    5.9000 C   0  0  0  0  0  3  0  0  0  0  0  0
    2.7130   -5.8280    7.0390 C   0  0  0  0  0  3  0  0  0  0  0  0
    3.9740   -5.2290    7.0360 C   0  0  0  0  0  3  0  0  0  0  0  0
    4.4360   -4.5770    5.8920 C   0  0  0  0  0  3  0  0  0  0  0  0
    3.8970   -7.2710    1.7490 O   0  0  0  0  0  0  0  0  0  0  0  0
    4.6280   -6.8790    2.7060 C   0  0  0  0  0  0  0  0  0  0  0  0
    4.7700   -7.3510    3.8700 O   0  0  0  0  0  1  0  0  0  0  0  0
  1 15  2  0  0  0  0
  1 26  1  0  0  0  0
  2  1  1  0  0  0  0
  3  2  1  0  0  0  0
  3  7  1  0  0  0  0
  4  5  1  0  0  0  0
  4  3  2  0  0  0  0
  5  6  2  0  0  0  0
  6  7  1  0  0  0  0
  6  8  1  0  0  0  0
  8 13  1  0  0  0  0
  9 10  1  0  0  0  0
  9  8  2  0  0  0  0
 10 11  2  0  0  0  0
 11 12  1  0  0  0  0
 13 12  2  0  0  0  0
 13 14  1  0  0  0  0
 15 16  1  0  0  0  0
 16 19  1  0  0  0  0
 17 16  2  0  0  0  0
 18 15  1  0  0  0  0
 19 20  2  0  0  0  0
 19 24  1  0  0  0  0
 20 21  1  0  0  0  0
 21 22  2  0  0  0  0
 23 22  1  0  0  0  0
 24 23  2  0  0  0  0
 25 26  2  0  0  0  0
 26 27  1  0  0  0  0
M  END
>  <minimizedAffinity>
-6.08072519

$$$$
