
 OpenBabel09132204463D

 27 29  0  0  0  0  0  0  0  0999 V2000
    9.6520   -0.7030    3.0050 C   0  0  0  0  0  0  0  0  0  0  0  0
    9.3000   -0.9430    1.7250 C   0  0  0  0  0  2  0  0  0  0  0  0
    9.3750   -2.2000    1.0650 C   0  0  0  0  0  0  0  0  0  0  0  0
   10.3960   -2.7820    0.3230 C   0  0  0  0  0  3  0  0  0  0  0  0
    9.9620   -4.0630   -0.0950 C   0  0  0  0  0  3  0  0  0  0  0  0
    8.6950   -4.2330    0.4190 C   0  0  0  0  0  0  0  0  0  0  0  0
    8.3520   -3.1210    1.1320 O   0  0  0  0  0  0  0  0  0  0  0  0
    7.6950   -5.2970    0.3710 C   0  0  0  0  0  0  0  0  0  0  0  0
    7.4810   -6.1360    1.4780 C   0  0  0  0  0  3  0  0  0  0  0  0
    6.5200   -7.1540    1.4410 C   0  0  0  0  0  3  0  0  0  0  0  0
    5.7550   -7.3510    0.2950 C   0  0  0  0  0  3  0  0  0  0  0  0
    5.9510   -6.5300   -0.8130 C   0  0  0  0  0  3  0  0  0  0  0  0
    6.9110   -5.5170   -0.7690 C   0  0  0  0  0  0  0  0  0  0  0  0
    7.0580   -4.7560   -1.8660 F   0  0  0  0  0  0  0  0  0  0  0  0
   10.2650   -1.6540    3.8130 N   0  0  0  0  0  4  0  0  0  0  0  0
    9.7940   -2.3630    4.8940 C   0  0  0  0  0  0  0  0  0  0  0  0
   10.5970   -2.9500    5.6260 O   0  0  0  0  0  0  0  0  0  0  0  0
   11.2590   -1.7790    3.6850 H   0  0  0  0  0  0  0  0  0  0  0  0
    8.3500   -2.5500    5.1550 C   0  0  0  0  0  0  0  0  0  0  0  0
    7.8180   -2.0520    6.3510 C   0  0  0  0  0  3  0  0  0  0  0  0
    6.4770   -2.2760    6.6670 C   0  0  0  0  0  3  0  0  0  0  0  0
    5.6710   -3.0100    5.7970 C   0  0  0  0  0  3  0  0  0  0  0  0
    6.2050   -3.5270    4.6160 C   0  0  0  0  0  3  0  0  0  0  0  0
    7.5470   -3.3110    4.3000 C   0  0  0  0  0  3  0  0  0  0  0  0
    8.8890    1.5060    2.5080 O   0  0  0  0  0  0  0  0  0  0  0  0
    9.4260    0.7900    3.4040 C   0  0  0  0  0  0  0  0  0  0  0  0
    9.8390    1.1010    4.5570 O   0  0  0  0  0  1  0  0  0  0  0  0
  1 26  1  0  0  0  0
  1 15  2  0  0  0  0
  2  1  1  0  0  0  0
  3  7  1  0  0  0  0
  3  2  1  0  0  0  0
  4  3  2  0  0  0  0
  5  4  1  0  0  0  0
  5  6  2  0  0  0  0
  6  7  1  0  0  0  0
  8  6  1  0  0  0  0
  8  9  1  0  0  0  0
 10  9  2  0  0  0  0
 11 10  1  0  0  0  0
 12 13  1  0  0  0  0
 12 11  2  0  0  0  0
 13  8  2  0  0  0  0
 14 13  1  0  0  0  0
 15 16  1  0  0  0  0
 16 19  1  0  0  0  0
 16 17  2  0  0  0  0
 18 15  1  0  0  0  0
 19 20  1  0  0  0  0
 20 21  2  0  0  0  0
 22 21  1  0  0  0  0
 23 22  2  0  0  0  0
 24 23  1  0  0  0  0
 24 19  2  0  0  0  0
 25 26  2  0  0  0  0
 26 27  1  0  0  0  0
M  END
>  <minimizedAffinity>
-6.71471071

$$$$
