
 OpenBabel09132204463D

 27 29  0  0  0  0  0  0  0  0999 V2000
    3.9160   -5.9690    4.8370 C   0  0  0  0  0  0  0  0  0  0  0  0
    3.8600   -6.5270    3.6110 C   0  0  0  0  0  2  0  0  0  0  0  0
    4.8800   -6.4640    2.6220 C   0  0  0  0  0  0  0  0  0  0  0  0
    5.1500   -7.2890    1.5370 C   0  0  0  0  0  3  0  0  0  0  0  0
    6.2730   -6.7620    0.8530 C   0  0  0  0  0  3  0  0  0  0  0  0
    6.6440   -5.6220    1.5310 C   0  0  0  0  0  0  0  0  0  0  0  0
    5.7940   -5.4340    2.5820 O   0  0  0  0  0  0  0  0  0  0  0  0
    7.6950   -4.6200    1.3700 C   0  0  0  0  0  0  0  0  0  0  0  0
    8.0270   -3.7470    2.4210 C   0  0  0  0  0  3  0  0  0  0  0  0
    9.0360   -2.7890    2.2750 C   0  0  0  0  0  3  0  0  0  0  0  0
    9.7350   -2.6860    1.0750 C   0  0  0  0  0  3  0  0  0  0  0  0
    9.4220   -3.5410    0.0220 C   0  0  0  0  0  3  0  0  0  0  0  0
    8.4140   -4.4960    0.1730 C   0  0  0  0  0  0  0  0  0  0  0  0
    8.1530   -5.2930   -0.8750 F   0  0  0  0  0  0  0  0  0  0  0  0
    4.9520   -5.1370    5.2450 N   0  0  0  0  0  4  0  0  0  0  0  0
    5.0390   -3.7650    5.3150 C   0  0  0  0  0  0  0  0  0  0  0  0
    6.1480   -3.2370    5.4450 O   0  0  0  0  0  0  0  0  0  0  0  0
    5.8450   -5.5800    5.4080 H   0  0  0  0  0  0  0  0  0  0  0  0
    3.8450   -2.8940    5.3580 C   0  0  0  0  0  0  0  0  0  0  0  0
    3.5290   -2.2530    6.5630 C   0  0  0  0  0  3  0  0  0  0  0  0
    2.3690   -1.4850    6.6630 C   0  0  0  0  0  3  0  0  0  0  0  0
    1.5140   -1.3680    5.5660 C   0  0  0  0  0  3  0  0  0  0  0  0
    1.8150   -2.0250    4.3720 C   0  0  0  0  0  3  0  0  0  0  0  0
    2.9710   -2.7990    4.2700 C   0  0  0  0  0  3  0  0  0  0  0  0
    1.5430   -5.8940    5.1090 O   0  0  0  0  0  0  0  0  0  0  0  0
    2.6220   -6.2490    5.6670 C   0  0  0  0  0  0  0  0  0  0  0  0
    2.8210   -6.7630    6.8040 O   0  0  0  0  0  1  0  0  0  0  0  0
  1 15  2  0  0  0  0
  1 26  1  0  0  0  0
  2  1  1  0  0  0  0
  3  2  1  0  0  0  0
  4  3  2  0  0  0  0
  5  6  2  0  0  0  0
  5  4  1  0  0  0  0
  6  7  1  0  0  0  0
  7  3  1  0  0  0  0
  8  6  1  0  0  0  0
  8  9  1  0  0  0  0
 10  9  2  0  0  0  0
 11 10  1  0  0  0  0
 12 13  1  0  0  0  0
 12 11  2  0  0  0  0
 13  8  2  0  0  0  0
 14 13  1  0  0  0  0
 15 16  1  0  0  0  0
 15 18  1  0  0  0  0
 16 19  1  0  0  0  0
 16 17  2  0  0  0  0
 19 20  1  0  0  0  0
 20 21  2  0  0  0  0
 22 21  1  0  0  0  0
 23 22  2  0  0  0  0
 24 23  1  0  0  0  0
 24 19  2  0  0  0  0
 25 26  2  0  0  0  0
 26 27  1  0  0  0  0
M  END
>  <minimizedAffinity>
-7.10306835

$$$$
