
 OpenBabel09092211523D

 45 50  0  0  0  0  0  0  0  0999 V2000
    8.0310   -2.1300    3.9440 C   0  0  0  0  0  0  0  0  0  0  0  0
    8.9570   -1.5200    3.1050 C   0  0  0  0  0  3  0  0  0  0  0  0
    9.2030   -0.1480    3.2160 C   0  0  0  0  0  3  0  0  0  0  0  0
    8.5420    0.6450    4.1690 C   0  0  0  0  0  0  0  0  0  0  0  0
    7.5670    0.0310    4.9910 C   0  0  0  0  0  0  0  0  0  0  0  0
    7.3430   -1.3520    4.8790 C   0  0  0  0  0  3  0  0  0  0  0  0
    6.7710    0.7500    6.0050 C   0  0  0  0  0  3  0  0  0  0  0  0
    6.3250    2.0060    5.8260 C   0  0  0  0  0  0  0  0  0  0  0  0
    6.4790    2.7650    4.5420 C   0  0  0  0  0  2  0  0  0  0  0  0
    7.8890    3.0650    4.3170 N   0  0  0  0  0  0  0  0  0  0  0  0
    8.8690    2.0890    4.2320 C   0  0  0  0  0  0  0  0  0  0  0  0
   10.0980    2.7560    4.2560 C   0  0  0  0  0  0  0  0  0  0  0  0
    9.8180    4.1680    4.2010 C   0  0  0  0  0  0  0  0  0  0  0  0
   10.6200    5.3340    4.1360 C   0  0  0  0  0  3  0  0  0  0  0  0
   10.0260    6.6040    4.1190 C   0  0  0  0  0  3  0  0  0  0  0  0
    8.6420    6.7290    4.1840 C   0  0  0  0  0  0  0  0  0  0  0  0
    7.8230    5.5930    4.2240 C   0  0  0  0  0  3  0  0  0  0  0  0
    8.4330    4.3260    4.2400 C   0  0  0  0  0  0  0  0  0  0  0  0
    8.0310    8.0760    4.1360 C   0  0  0  0  0  0  0  0  0  0  0  0
    8.4510    8.9410    3.3840 O   0  0  0  0  0  0  0  0  0  0  0  0
    6.8470    8.2710    4.8790 N   0  0  0  0  0  0  0  0  0  0  0  0
    6.9200    8.5700    6.5280 S   0  0  0  0  0  0  0  0  0  0  0  0
    7.9120    9.5990    6.7190 O   0  0  0  0  0  0  0  0  0  0  0  0
    5.5540    8.7670    6.9520 O   0  0  0  0  0  0  0  0  0  0  0  0
    7.4810    7.1250    7.1670 N   0  0  0  0  0  0  0  0  0  0  0  0
    6.5400    5.9880    7.2930 C   0  0  0  0  0  2  0  0  0  0  0  0
    5.6590    6.0460    8.5420 C   0  0  0  0  0  2  0  0  0  0  0  0
    5.9190    4.9430    9.5760 C   0  0  0  0  0  2  0  0  0  0  0  0
    5.4110    3.5420    9.1960 C   0  0  0  0  0  2  0  0  0  0  0  0
    6.1750    2.8820    8.1380 N   0  0  0  0  0  0  0  0  0  0  0  0
    7.5020    2.3860    8.4950 C   0  0  0  0  0  1  0  0  0  0  0  0
    5.5780    2.7250    6.8920 C   0  0  0  0  0  0  0  0  0  0  0  0
    4.4940    3.2270    6.5990 O   0  0  0  0  0  0  0  0  0  0  0  0
    6.3860    9.1070    4.5210 H   0  0  0  0  0  0  0  0  0  0  0  0
   11.4670    2.1100    4.3410 C   0  0  0  0  0  3  0  0  0  0  0  0
   11.5400    1.0120    5.4140 C   0  0  0  0  0  2  0  0  0  0  0  0
   12.9390    0.4010    5.4950 C   0  0  0  0  0  2  0  0  0  0  0  0
   13.4090   -0.1130    4.1370 C   0  0  0  0  0  2  0  0  0  0  0  0
   13.3480    0.9770    3.0720 C   0  0  0  0  0  2  0  0  0  0  0  0
   11.9520    1.5920    2.9740 C   0  0  0  0  0  2  0  0  0  0  0  0
    8.7670    7.1410    7.9200 C   0  0  0  0  0  3  0  0  0  0  0  0
    8.5670    7.6050    9.3600 C   0  0  0  0  0  1  0  0  0  0  0  0
    9.5090    5.8090    7.8830 C   0  0  0  0  0  1  0  0  0  0  0  0
    6.3130   -3.7740    3.9440 C   0  0  0  0  0  1  0  0  0  0  0  0
    7.6980   -3.4560    3.9480 O   0  0  0  0  0  0  0  0  0  0  0  0
  1 45  1  0  0  0  0
  1  6  1  0  0  0  0
  2  3  1  0  0  0  0
  2  1  2  0  0  0  0
  3  4  2  0  0  0  0
  4 11  1  0  0  0  0
  4  5  1  0  0  0  0
  5  7  1  0  0  0  0
  6  5  2  0  0  0  0
  8  7  2  0  0  0  0
  8 32  1  0  0  0  0
  9  8  1  0  0  0  0
 10  9  1  0  0  0  0
 11 12  2  0  0  0  0
 11 10  1  0  0  0  0
 12 35  1  0  0  0  0
 13 18  1  0  0  0  0
 13 12  1  0  0  0  0
 14 13  2  0  0  0  0
 15 14  1  0  0  0  0
 15 16  2  0  0  0  0
 16 17  1  0  0  0  0
 17 18  2  0  0  0  0
 18 10  1  0  0  0  0
 19 16  1  0  0  0  0
 19 21  1  0  0  0  0
 20 19  2  0  0  0  0
 21 22  1  0  0  0  0
 22 23  2  0  0  0  0
 22 24  2  0  0  0  0
 22 25  1  0  0  0  0
 25 26  1  0  0  0  0
 25 41  1  0  0  0  0
 26 27  1  0  0  0  0
 27 28  1  0  0  0  0
 29 28  1  0  0  0  0
 30 31  1  0  0  0  0
 30 29  1  0  0  0  0
 32 30  1  0  0  0  0
 33 32  2  0  0  0  0
 34 21  1  0  0  0  0
 35 36  1  0  0  0  0
 36 37  1  0  0  0  0
 38 37  1  0  0  0  0
 39 38  1  0  0  0  0
 40 39  1  0  0  0  0
 40 35  1  0  0  0  0
 41 42  1  0  0  0  0
 43 41  1  0  0  0  0
 44 45  1  0  0  0  0
M  END
>  <minimizedAffinity>
-5.31948662

$$$$
