
 OpenBabel09092211523D

 45 50  0  0  0  0  0  0  0  0999 V2000
    4.7850   -2.7140    4.7060 C   0  0  0  0  0  0  0  0  0  0  0  0
    5.9280   -2.8180    3.9220 C   0  0  0  0  0  3  0  0  0  0  0  0
    6.8740   -1.7870    3.9250 C   0  0  0  0  0  3  0  0  0  0  0  0
    6.7080   -0.6370    4.7160 C   0  0  0  0  0  0  0  0  0  0  0  0
    5.5220   -0.5140    5.4780 C   0  0  0  0  0  0  0  0  0  0  0  0
    4.5890   -1.5660    5.4770 C   0  0  0  0  0  3  0  0  0  0  0  0
    5.2000    0.6550    6.3210 C   0  0  0  0  0  3  0  0  0  0  0  0
    5.5140    1.9150    5.9700 C   0  0  0  0  0  0  0  0  0  0  0  0
    6.1090    2.2820    4.6430 C   0  0  0  0  0  2  0  0  0  0  0  0
    7.4640    1.7510    4.5510 N   0  0  0  0  0  0  0  0  0  0  0  0
    7.7620    0.4040    4.6730 C   0  0  0  0  0  0  0  0  0  0  0  0
    9.1540    0.3100    4.7700 C   0  0  0  0  0  0  0  0  0  0  0  0
    9.6870    1.6300    4.5460 C   0  0  0  0  0  0  0  0  0  0  0  0
   10.9940    2.1680    4.4580 C   0  0  0  0  0  3  0  0  0  0  0  0
   11.1840    3.5410    4.2500 C   0  0  0  0  0  3  0  0  0  0  0  0
   10.0870    4.3910    4.1460 C   0  0  0  0  0  0  0  0  0  0  0  0
    8.7830    3.8830    4.2040 C   0  0  0  0  0  3  0  0  0  0  0  0
    8.6080    2.5040    4.4130 C   0  0  0  0  0  0  0  0  0  0  0  0
   10.3070    5.8330    3.8980 C   0  0  0  0  0  0  0  0  0  0  0  0
   11.1590    6.2240    3.1170 O   0  0  0  0  0  0  0  0  0  0  0  0
    9.3860    6.7310    4.4800 N   0  0  0  0  0  0  0  0  0  0  0  0
    9.5400    7.1780    6.0900 S   0  0  0  0  0  0  0  0  0  0  0  0
   10.9230    7.5380    6.2900 O   0  0  0  0  0  0  0  0  0  0  0  0
    8.4820    8.1300    6.3350 O   0  0  0  0  0  0  0  0  0  0  0  0
    9.2020    5.7660    6.9260 N   0  0  0  0  0  0  0  0  0  0  0  0
    7.7900    5.3350    7.0550 C   0  0  0  0  0  2  0  0  0  0  0  0
    7.0290    6.0300    8.1850 C   0  0  0  0  0  2  0  0  0  0  0  0
    6.6060    5.1190    9.3450 C   0  0  0  0  0  2  0  0  0  0  0  0
    5.4370    4.1660    9.0490 C   0  0  0  0  0  2  0  0  0  0  0  0
    5.7650    3.0570    8.1530 N   0  0  0  0  0  0  0  0  0  0  0  0
    6.5960    1.9880    8.7050 C   0  0  0  0  0  1  0  0  0  0  0  0
    5.2310    3.0640    6.8690 C   0  0  0  0  0  0  0  0  0  0  0  0
    4.6060    4.0180    6.4090 O   0  0  0  0  0  0  0  0  0  0  0  0
    9.4670    7.6230    3.9920 H   0  0  0  0  0  0  0  0  0  0  0  0
    9.9490   -0.9450    5.0720 C   0  0  0  0  0  3  0  0  0  0  0  0
   10.7700   -1.4330    3.8670 C   0  0  0  0  0  2  0  0  0  0  0  0
   11.5360   -2.7140    4.1940 C   0  0  0  0  0  2  0  0  0  0  0  0
   12.4100   -2.5470    5.4340 C   0  0  0  0  0  2  0  0  0  0  0  0
   11.5980   -2.0720    6.6350 C   0  0  0  0  0  2  0  0  0  0  0  0
   10.8320   -0.7870    6.3240 C   0  0  0  0  0  2  0  0  0  0  0  0
   10.2580    5.2040    7.8140 C   0  0  0  0  0  3  0  0  0  0  0  0
   10.2840    5.9070    9.1680 C   0  0  0  0  0  1  0  0  0  0  0  0
   10.1570    3.6920    7.9950 C   0  0  0  0  0  1  0  0  0  0  0  0
    2.6980   -3.3340    5.6620 C   0  0  0  0  0  1  0  0  0  0  0  0
    3.7870   -3.6440    4.8030 O   0  0  0  0  0  0  0  0  0  0  0  0
  1 45  1  0  0  0  0
  1  6  1  0  0  0  0
  2  3  1  0  0  0  0
  2  1  2  0  0  0  0
  3  4  2  0  0  0  0
  4  5  1  0  0  0  0
  5  7  1  0  0  0  0
  6  5  2  0  0  0  0
  8  7  2  0  0  0  0
  8 32  1  0  0  0  0
  9  8  1  0  0  0  0
 10  9  1  0  0  0  0
 10 11  1  0  0  0  0
 11  4  1  0  0  0  0
 11 12  2  0  0  0  0
 12 35  1  0  0  0  0
 13 12  1  0  0  0  0
 14 13  1  0  0  0  0
 15 14  2  0  0  0  0
 16 17  2  0  0  0  0
 16 15  1  0  0  0  0
 17 18  1  0  0  0  0
 18 13  2  0  0  0  0
 18 10  1  0  0  0  0
 19 16  1  0  0  0  0
 19 21  1  0  0  0  0
 20 19  2  0  0  0  0
 21 22  1  0  0  0  0
 22 23  2  0  0  0  0
 22 24  2  0  0  0  0
 22 25  1  0  0  0  0
 25 26  1  0  0  0  0
 25 41  1  0  0  0  0
 26 27  1  0  0  0  0
 27 28  1  0  0  0  0
 29 28  1  0  0  0  0
 30 31  1  0  0  0  0
 30 29  1  0  0  0  0
 32 30  1  0  0  0  0
 33 32  2  0  0  0  0
 34 21  1  0  0  0  0
 35 40  1  0  0  0  0
 36 37  1  0  0  0  0
 36 35  1  0  0  0  0
 37 38  1  0  0  0  0
 38 39  1  0  0  0  0
 40 39  1  0  0  0  0
 41 43  1  0  0  0  0
 41 42  1  0  0  0  0
 45 44  1  0  0  0  0
M  END
>  <minimizedAffinity>
-4.48855543

$$$$
