
 OpenBabel09092211523D

 45 50  0  0  0  0  0  0  0  0999 V2000
    1.5020   -2.0630    5.3450 C   0  0  0  0  0  0  0  0  0  0  0  0
    1.7730   -1.7440    4.0190 C   0  0  0  0  0  3  0  0  0  0  0  0
    3.0910   -1.5210    3.6080 C   0  0  0  0  0  3  0  0  0  0  0  0
    4.1680   -1.6200    4.5050 C   0  0  0  0  0  0  0  0  0  0  0  0
    3.8870   -1.8990    5.8630 C   0  0  0  0  0  0  0  0  0  0  0  0
    2.5590   -2.1380    6.2570 C   0  0  0  0  0  3  0  0  0  0  0  0
    4.9160   -1.9930    6.9180 C   0  0  0  0  0  3  0  0  0  0  0  0
    6.0010   -1.1980    6.9500 C   0  0  0  0  0  0  0  0  0  0  0  0
    6.2230   -0.0590    5.9990 C   0  0  0  0  0  2  0  0  0  0  0  0
    6.4490   -0.5800    4.6560 N   0  0  0  0  0  0  0  0  0  0  0  0
    5.5370   -1.3810    3.9880 C   0  0  0  0  0  0  0  0  0  0  0  0
    6.1920   -1.8710    2.8540 C   0  0  0  0  0  0  0  0  0  0  0  0
    7.4730   -1.2140    2.7840 C   0  0  0  0  0  0  0  0  0  0  0  0
    8.5470   -1.2350    1.8610 C   0  0  0  0  0  3  0  0  0  0  0  0
    9.7020   -0.4770    2.0980 C   0  0  0  0  0  3  0  0  0  0  0  0
    9.8090    0.2900    3.2540 C   0  0  0  0  0  0  0  0  0  0  0  0
    8.7530    0.3490    4.1730 C   0  0  0  0  0  3  0  0  0  0  0  0
    7.6010   -0.4170    3.9210 C   0  0  0  0  0  0  0  0  0  0  0  0
   11.0240    1.1060    3.4740 C   0  0  0  0  0  0  0  0  0  0  0  0
   11.5510    1.7250    2.5640 O   0  0  0  0  0  0  0  0  0  0  0  0
   11.4560    1.2670    4.8080 N   0  0  0  0  0  0  0  0  0  0  0  0
   12.3570    0.0660    5.5580 S   0  0  0  0  0  0  0  0  0  0  0  0
   13.4060   -0.3010    4.6380 O   0  0  0  0  0  0  0  0  0  0  0  0
   12.6660    0.5720    6.8740 O   0  0  0  0  0  0  0  0  0  0  0  0
   11.2740   -1.2050    5.7090 N   0  0  0  0  0  0  0  0  0  0  0  0
   10.2460   -1.1420    6.7740 C   0  0  0  0  0  2  0  0  0  0  0  0
   10.7500   -1.5820    8.1500 C   0  0  0  0  0  2  0  0  0  0  0  0
   10.1250   -2.8750    8.6920 C   0  0  0  0  0  2  0  0  0  0  0  0
    8.6730   -2.7550    9.1840 C   0  0  0  0  0  2  0  0  0  0  0  0
    7.6800   -2.5910    8.1220 N   0  0  0  0  0  0  0  0  0  0  0  0
    7.3880   -3.7680    7.3060 C   0  0  0  0  0  1  0  0  0  0  0  0
    7.0500   -1.3580    7.9900 C   0  0  0  0  0  0  0  0  0  0  0  0
    7.3790   -0.3650    8.6370 O   0  0  0  0  0  0  0  0  0  0  0  0
   12.0840    2.0700    4.8400 H   0  0  0  0  0  0  0  0  0  0  0  0
    5.6590   -2.9130    1.8900 C   0  0  0  0  0  3  0  0  0  0  0  0
    5.4760   -2.3660    0.4650 C   0  0  0  0  0  2  0  0  0  0  0  0
    4.9110   -3.4310   -0.4740 C   0  0  0  0  0  2  0  0  0  0  0  0
    5.7610   -4.6980   -0.4670 C   0  0  0  0  0  2  0  0  0  0  0  0
    5.9350   -5.2500    0.9450 C   0  0  0  0  0  2  0  0  0  0  0  0
    6.5080   -4.1980    1.8940 C   0  0  0  0  0  2  0  0  0  0  0  0
   11.6030   -2.4930    5.0370 C   0  0  0  0  0  3  0  0  0  0  0  0
   12.6080   -3.3070    5.8490 C   0  0  0  0  0  1  0  0  0  0  0  0
   10.3750   -3.3340    4.7030 C   0  0  0  0  0  1  0  0  0  0  0  0
    0.2320   -2.9350    7.1560 C   0  0  0  0  0  1  0  0  0  0  0  0
    0.2680   -2.3110    5.8790 O   0  0  0  0  0  0  0  0  0  0  0  0
  1 45  1  0  0  0  0
  1  6  1  0  0  0  0
  2  1  2  0  0  0  0
  3  2  1  0  0  0  0
  3  4  2  0  0  0  0
  4  5  1  0  0  0  0
  5  6  2  0  0  0  0
  5  7  1  0  0  0  0
  7  8  2  0  0  0  0
  8 32  1  0  0  0  0
  9  8  1  0  0  0  0
 10  9  1  0  0  0  0
 11  4  1  0  0  0  0
 11 10  1  0  0  0  0
 12 11  2  0  0  0  0
 13 12  1  0  0  0  0
 13 18  1  0  0  0  0
 14 15  1  0  0  0  0
 14 13  2  0  0  0  0
 15 16  2  0  0  0  0
 16 19  1  0  0  0  0
 16 17  1  0  0  0  0
 18 17  2  0  0  0  0
 18 10  1  0  0  0  0
 19 21  1  0  0  0  0
 20 19  2  0  0  0  0
 21 34  1  0  0  0  0
 21 22  1  0  0  0  0
 22 25  1  0  0  0  0
 22 24  2  0  0  0  0
 23 22  2  0  0  0  0
 25 26  1  0  0  0  0
 26 27  1  0  0  0  0
 27 28  1  0  0  0  0
 28 29  1  0  0  0  0
 30 29  1  0  0  0  0
 31 30  1  0  0  0  0
 32 30  1  0  0  0  0
 32 33  2  0  0  0  0
 35 40  1  0  0  0  0
 35 12  1  0  0  0  0
 36 35  1  0  0  0  0
 37 38  1  0  0  0  0
 37 36  1  0  0  0  0
 38 39  1  0  0  0  0
 39 40  1  0  0  0  0
 41 25  1  0  0  0  0
 41 42  1  0  0  0  0
 43 41  1  0  0  0  0
 45 44  1  0  0  0  0
M  END
>  <minimizedAffinity>
-4.49689674

$$$$
