
 OpenBabel09092211523D

 45 50  0  0  0  0  0  0  0  0999 V2000
   10.2390    7.3130    3.6210 C   0  0  0  0  0  0  0  0  0  0  0  0
    9.0190    6.8980    3.1010 C   0  0  0  0  0  3  0  0  0  0  0  0
    8.5800    5.5860    3.3080 C   0  0  0  0  0  3  0  0  0  0  0  0
    9.3410    4.6620    4.0440 C   0  0  0  0  0  0  0  0  0  0  0  0
   10.6030    5.0730    4.5340 C   0  0  0  0  0  0  0  0  0  0  0  0
   11.0230    6.4000    4.3330 C   0  0  0  0  0  3  0  0  0  0  0  0
   11.5220    4.1970    5.2880 C   0  0  0  0  0  3  0  0  0  0  0  0
   11.6720    2.8890    5.0140 C   0  0  0  0  0  0  0  0  0  0  0  0
   11.0220    2.2080    3.8450 C   0  0  0  0  0  2  0  0  0  0  0  0
    9.5780    2.1630    4.0470 N   0  0  0  0  0  0  0  0  0  0  0  0
    8.8010    3.2950    4.2300 C   0  0  0  0  0  0  0  0  0  0  0  0
    7.5350    2.8500    4.6230 C   0  0  0  0  0  0  0  0  0  0  0  0
    7.5370    1.4120    4.5200 C   0  0  0  0  0  0  0  0  0  0  0  0
    6.5610    0.4040    4.7150 C   0  0  0  0  0  3  0  0  0  0  0  0
    6.8940   -0.9470    4.5530 C   0  0  0  0  0  3  0  0  0  0  0  0
    8.1940   -1.3110    4.2150 C   0  0  0  0  0  0  0  0  0  0  0  0
    9.1730   -0.3350    3.9920 C   0  0  0  0  0  3  0  0  0  0  0  0
    8.8240    1.0170    4.1580 C   0  0  0  0  0  0  0  0  0  0  0  0
    8.5210   -2.7410    4.0200 C   0  0  0  0  0  0  0  0  0  0  0  0
    7.7570   -3.4970    3.4410 O   0  0  0  0  0  0  0  0  0  0  0  0
    9.8170   -3.1600    4.3910 N   0  0  0  0  0  0  0  0  0  0  0  0
   10.1740   -3.4920    5.9960 S   0  0  0  0  0  0  0  0  0  0  0  0
    9.1160   -4.3410    6.4890 O   0  0  0  0  0  0  0  0  0  0  0  0
   11.5480   -3.9340    6.0090 O   0  0  0  0  0  0  0  0  0  0  0  0
   10.0820   -1.9930    6.7400 N   0  0  0  0  0  0  0  0  0  0  0  0
   11.2020   -1.0390    6.5630 C   0  0  0  0  0  2  0  0  0  0  0  0
   12.3830   -1.2870    7.5020 C   0  0  0  0  0  2  0  0  0  0  0  0
   12.6290   -0.1870    8.5450 C   0  0  0  0  0  2  0  0  0  0  0  0
   13.2410    1.1160    8.0040 C   0  0  0  0  0  2  0  0  0  0  0  0
   12.3300    1.9300    7.2000 N   0  0  0  0  0  0  0  0  0  0  0  0
   11.2710    2.6360    7.9170 C   0  0  0  0  0  1  0  0  0  0  0  0
   12.5590    2.0200    5.8310 C   0  0  0  0  0  0  0  0  0  0  0  0
   13.4060    1.3480    5.2460 O   0  0  0  0  0  0  0  0  0  0  0  0
   10.0020   -4.0510    3.9320 H   0  0  0  0  0  0  0  0  0  0  0  0
    6.3840    3.7190    5.0890 C   0  0  0  0  0  3  0  0  0  0  0  0
    5.1930    3.7000    4.1170 C   0  0  0  0  0  2  0  0  0  0  0  0
    4.0620    4.6080    4.5990 C   0  0  0  0  0  2  0  0  0  0  0  0
    3.6280    4.2600    6.0210 C   0  0  0  0  0  2  0  0  0  0  0  0
    4.8050    4.2880    6.9910 C   0  0  0  0  0  2  0  0  0  0  0  0
    5.9410    3.3790    6.5250 C   0  0  0  0  0  2  0  0  0  0  0  0
    9.0870   -1.8100    7.8340 C   0  0  0  0  0  3  0  0  0  0  0  0
    9.6220   -2.3230    9.1690 C   0  0  0  0  0  1  0  0  0  0  0  0
    8.5920   -0.3740    7.9700 C   0  0  0  0  0  1  0  0  0  0  0  0
   11.8800    8.8710    4.3520 C   0  0  0  0  0  1  0  0  0  0  0  0
   10.7840    8.5620    3.5010 O   0  0  0  0  0  0  0  0  0  0  0  0
  1  6  1  0  0  0  0
  2  3  1  0  0  0  0
  2  1  2  0  0  0  0
  3  4  2  0  0  0  0
  4 11  1  0  0  0  0
  4  5  1  0  0  0  0
  5  7  1  0  0  0  0
  6  5  2  0  0  0  0
  8  7  2  0  0  0  0
  8 32  1  0  0  0  0
  9 10  1  0  0  0  0
  9  8  1  0  0  0  0
 10 18  1  0  0  0  0
 10 11  1  0  0  0  0
 11 12  2  0  0  0  0
 12 35  1  0  0  0  0
 13 12  1  0  0  0  0
 13 14  1  0  0  0  0
 15 14  2  0  0  0  0
 16 15  1  0  0  0  0
 17 18  1  0  0  0  0
 17 16  2  0  0  0  0
 18 13  2  0  0  0  0
 19 16  1  0  0  0  0
 19 21  1  0  0  0  0
 20 19  2  0  0  0  0
 21 22  1  0  0  0  0
 22 24  2  0  0  0  0
 22 23  2  0  0  0  0
 22 25  1  0  0  0  0
 25 41  1  0  0  0  0
 26 25  1  0  0  0  0
 26 27  1  0  0  0  0
 27 28  1  0  0  0  0
 29 28  1  0  0  0  0
 30 31  1  0  0  0  0
 30 29  1  0  0  0  0
 32 30  1  0  0  0  0
 33 32  2  0  0  0  0
 34 21  1  0  0  0  0
 35 40  1  0  0  0  0
 36 37  1  0  0  0  0
 36 35  1  0  0  0  0
 37 38  1  0  0  0  0
 38 39  1  0  0  0  0
 40 39  1  0  0  0  0
 41 43  1  0  0  0  0
 41 42  1  0  0  0  0
 45  1  1  0  0  0  0
 45 44  1  0  0  0  0
M  END
>  <minimizedAffinity>
-5.64649773

$$$$
