
 OpenBabel09092211523D

 45 50  0  0  0  0  0  0  0  0999 V2000
    4.5460   -2.6790    4.7140 C   0  0  0  0  0  0  0  0  0  0  0  0
    5.6760   -2.7940    3.9130 C   0  0  0  0  0  3  0  0  0  0  0  0
    6.6410   -1.7810    3.9150 C   0  0  0  0  0  3  0  0  0  0  0  0
    6.5070   -0.6380    4.7210 C   0  0  0  0  0  0  0  0  0  0  0  0
    5.3340   -0.5010    5.5010 C   0  0  0  0  0  0  0  0  0  0  0  0
    4.3820   -1.5360    5.5010 C   0  0  0  0  0  3  0  0  0  0  0  0
    5.0450    0.6630    6.3610 C   0  0  0  0  0  3  0  0  0  0  0  0
    5.3780    1.9210    6.0210 C   0  0  0  0  0  0  0  0  0  0  0  0
    5.9610    2.2930    4.6900 C   0  0  0  0  0  2  0  0  0  0  0  0
    7.3050    1.7380    4.5730 N   0  0  0  0  0  0  0  0  0  0  0  0
    7.5800    0.3840    4.6760 C   0  0  0  0  0  0  0  0  0  0  0  0
    8.9710    0.2640    4.7530 C   0  0  0  0  0  0  0  0  0  0  0  0
    9.5250    1.5770    4.5370 C   0  0  0  0  0  0  0  0  0  0  0  0
   10.8410    2.0910    4.4380 C   0  0  0  0  0  3  0  0  0  0  0  0
   11.0540    3.4630    4.2420 C   0  0  0  0  0  3  0  0  0  0  0  0
    9.9710    4.3340    4.1620 C   0  0  0  0  0  0  0  0  0  0  0  0
    8.6580    3.8500    4.2330 C   0  0  0  0  0  3  0  0  0  0  0  0
    8.4600    2.4710    4.4280 C   0  0  0  0  0  0  0  0  0  0  0  0
   10.2140    5.7750    3.9280 C   0  0  0  0  0  0  0  0  0  0  0  0
   11.0630    6.1590    3.1400 O   0  0  0  0  0  0  0  0  0  0  0  0
    9.3180    6.6830    4.5320 N   0  0  0  0  0  0  0  0  0  0  0  0
    9.5020    7.1080    6.1450 S   0  0  0  0  0  0  0  0  0  0  0  0
   10.8930    7.4400    6.3300 O   0  0  0  0  0  0  0  0  0  0  0  0
    8.4650    8.0760    6.4160 O   0  0  0  0  0  0  0  0  0  0  0  0
    9.1480    5.6920    6.9700 N   0  0  0  0  0  0  0  0  0  0  0  0
    7.7310    5.2860    7.1130 C   0  0  0  0  0  2  0  0  0  0  0  0
    6.9980    5.9820    8.2610 C   0  0  0  0  0  2  0  0  0  0  0  0
    6.5740    5.0650    9.4170 C   0  0  0  0  0  2  0  0  0  0  0  0
    5.3830    4.1370    9.1260 C   0  0  0  0  0  2  0  0  0  0  0  0
    5.6790    3.0330    8.2130 N   0  0  0  0  0  0  0  0  0  0  0  0
    6.4970    1.9430    8.7410 C   0  0  0  0  0  1  0  0  0  0  0  0
    5.1280    3.0650    6.9370 C   0  0  0  0  0  0  0  0  0  0  0  0
    4.5140    4.0350    6.4950 O   0  0  0  0  0  0  0  0  0  0  0  0
    9.4090    7.5780    4.0530 H   0  0  0  0  0  0  0  0  0  0  0  0
    9.7470   -1.0080    5.0290 C   0  0  0  0  0  3  0  0  0  0  0  0
   10.5590   -1.4860    3.8150 C   0  0  0  0  0  2  0  0  0  0  0  0
   11.3050   -2.7850    4.1160 C   0  0  0  0  0  2  0  0  0  0  0  0
   12.1830   -2.6550    5.3580 C   0  0  0  0  0  2  0  0  0  0  0  0
   11.3790   -2.1920    6.5690 C   0  0  0  0  0  2  0  0  0  0  0  0
   10.6320   -0.8890    6.2840 C   0  0  0  0  0  2  0  0  0  0  0  0
   10.2060    5.1010    7.8370 C   0  0  0  0  0  3  0  0  0  0  0  0
   10.2600    5.7850    9.2000 C   0  0  0  0  0  1  0  0  0  0  0  0
   10.0820    3.5890    7.9990 C   0  0  0  0  0  1  0  0  0  0  0  0
    2.5500   -3.3570    5.8140 C   0  0  0  0  0  1  0  0  0  0  0  0
    3.5330   -3.5910    4.8140 O   0  0  0  0  0  0  0  0  0  0  0  0
  1 45  1  0  0  0  0
  1  6  1  0  0  0  0
  2  3  1  0  0  0  0
  2  1  2  0  0  0  0
  3  4  2  0  0  0  0
  4  5  1  0  0  0  0
  5  6  2  0  0  0  0
  5  7  1  0  0  0  0
  8  7  2  0  0  0  0
  8 32  1  0  0  0  0
  9  8  1  0  0  0  0
 10 11  1  0  0  0  0
 10  9  1  0  0  0  0
 11  4  1  0  0  0  0
 11 12  2  0  0  0  0
 12 35  1  0  0  0  0
 13 12  1  0  0  0  0
 14 13  1  0  0  0  0
 15 14  2  0  0  0  0
 16 17  2  0  0  0  0
 16 15  1  0  0  0  0
 17 18  1  0  0  0  0
 18 13  2  0  0  0  0
 18 10  1  0  0  0  0
 19 16  1  0  0  0  0
 19 21  1  0  0  0  0
 20 19  2  0  0  0  0
 21 22  1  0  0  0  0
 22 23  2  0  0  0  0
 22 24  2  0  0  0  0
 22 25  1  0  0  0  0
 25 26  1  0  0  0  0
 25 41  1  0  0  0  0
 26 27  1  0  0  0  0
 27 28  1  0  0  0  0
 29 28  1  0  0  0  0
 30 31  1  0  0  0  0
 30 29  1  0  0  0  0
 32 30  1  0  0  0  0
 33 32  2  0  0  0  0
 34 21  1  0  0  0  0
 35 40  1  0  0  0  0
 36 37  1  0  0  0  0
 36 35  1  0  0  0  0
 37 38  1  0  0  0  0
 38 39  1  0  0  0  0
 40 39  1  0  0  0  0
 41 43  1  0  0  0  0
 41 42  1  0  0  0  0
 45 44  1  0  0  0  0
M  END
>  <minimizedAffinity>
-4.55248547

$$$$
