
 OpenBabel09092211523D

 45 50  0  0  0  0  0  0  0  0999 V2000
    5.7770   -2.1760    0.8810 C   0  0  0  0  0  0  0  0  0  0  0  0
    4.8210   -1.8140    1.8230 C   0  0  0  0  0  3  0  0  0  0  0  0
    5.2130   -1.1970    3.0160 C   0  0  0  0  0  3  0  0  0  0  0  0
    6.5620   -0.9180    3.2920 C   0  0  0  0  0  0  0  0  0  0  0  0
    7.5370   -1.3290    2.3520 C   0  0  0  0  0  0  0  0  0  0  0  0
    7.1260   -1.9320    1.1510 C   0  0  0  0  0  3  0  0  0  0  0  0
    8.9900   -1.1360    2.5320 C   0  0  0  0  0  3  0  0  0  0  0  0
    9.5980   -1.2470    3.7270 C   0  0  0  0  0  0  0  0  0  0  0  0
    8.8970   -1.6960    4.9740 C   0  0  0  0  0  2  0  0  0  0  0  0
    7.9310   -0.6830    5.3840 N   0  0  0  0  0  0  0  0  0  0  0  0
    6.8940   -0.2500    4.5730 C   0  0  0  0  0  0  0  0  0  0  0  0
    6.3400    0.8720    5.1980 C   0  0  0  0  0  0  0  0  0  0  0  0
    6.9780    1.0020    6.4830 C   0  0  0  0  0  0  0  0  0  0  0  0
    6.8180    1.8800    7.5830 C   0  0  0  0  0  3  0  0  0  0  0  0
    7.6360    1.7570    8.7150 C   0  0  0  0  0  3  0  0  0  0  0  0
    8.6270    0.7800    8.7580 C   0  0  0  0  0  0  0  0  0  0  0  0
    8.7910   -0.1170    7.6960 C   0  0  0  0  0  3  0  0  0  0  0  0
    7.9630    0.0180    6.5670 C   0  0  0  0  0  0  0  0  0  0  0  0
    9.4620    0.6470    9.9720 C   0  0  0  0  0  0  0  0  0  0  0  0
    8.9830    0.7450   11.0910 O   0  0  0  0  0  0  0  0  0  0  0  0
   10.8020    0.2450    9.7880 N   0  0  0  0  0  0  0  0  0  0  0  0
   11.9690    1.3640    9.3380 S   0  0  0  0  0  0  0  0  0  0  0  0
   11.8080    2.5020   10.2100 O   0  0  0  0  0  0  0  0  0  0  0  0
   13.2140    0.6340    9.2900 O   0  0  0  0  0  0  0  0  0  0  0  0
   11.5290    1.7870    7.7770 N   0  0  0  0  0  0  0  0  0  0  0  0
   11.8320    0.8470    6.6720 C   0  0  0  0  0  2  0  0  0  0  0  0
   13.2670    0.9410    6.1530 C   0  0  0  0  0  2  0  0  0  0  0  0
   13.4090    1.4630    4.7160 C   0  0  0  0  0  2  0  0  0  0  0  0
   12.9970    0.4790    3.6080 C   0  0  0  0  0  2  0  0  0  0  0  0
   11.5570    0.2510    3.5000 N   0  0  0  0  0  0  0  0  0  0  0  0
   10.7580    1.3380    2.9370 C   0  0  0  0  0  1  0  0  0  0  0  0
   11.0530   -0.9870    3.8850 C   0  0  0  0  0  0  0  0  0  0  0  0
   11.7380   -1.8490    4.4330 O   0  0  0  0  0  0  0  0  0  0  0  0
   11.1530   -0.0970   10.6820 H   0  0  0  0  0  0  0  0  0  0  0  0
    5.2800    1.7880    4.6200 C   0  0  0  0  0  3  0  0  0  0  0  0
    3.9230    1.6490    5.3300 C   0  0  0  0  0  2  0  0  0  0  0  0
    2.8690    2.5630    4.7060 C   0  0  0  0  0  2  0  0  0  0  0  0
    3.3340    4.0160    4.6690 C   0  0  0  0  0  2  0  0  0  0  0  0
    4.6750    4.1590    3.9560 C   0  0  0  0  0  2  0  0  0  0  0  0
    5.7410    3.2570    4.5740 C   0  0  0  0  0  2  0  0  0  0  0  0
   11.2030    3.2140    7.5000 C   0  0  0  0  0  3  0  0  0  0  0  0
   12.4630    4.0410    7.2640 C   0  0  0  0  0  1  0  0  0  0  0  0
   10.2160    3.3990    6.3520 C   0  0  0  0  0  1  0  0  0  0  0  0
    4.3620   -3.5760   -0.4210 C   0  0  0  0  0  1  0  0  0  0  0  0
    5.5350   -2.7770   -0.3230 O   0  0  0  0  0  0  0  0  0  0  0  0
  1  6  2  0  0  0  0
  1  2  1  0  0  0  0
  2  3  2  0  0  0  0
  3  4  1  0  0  0  0
  4 11  1  0  0  0  0
  5  7  1  0  0  0  0
  5  4  2  0  0  0  0
  6  5  1  0  0  0  0
  7  8  2  0  0  0  0
  8 32  1  0  0  0  0
  8  9  1  0  0  0  0
  9 10  1  0  0  0  0
 10 18  1  0  0  0  0
 11 12  2  0  0  0  0
 11 10  1  0  0  0  0
 12 13  1  0  0  0  0
 13 18  2  0  0  0  0
 13 14  1  0  0  0  0
 14 15  2  0  0  0  0
 15 16  1  0  0  0  0
 16 19  1  0  0  0  0
 17 16  2  0  0  0  0
 18 17  1  0  0  0  0
 19 20  2  0  0  0  0
 21 19  1  0  0  0  0
 21 34  1  0  0  0  0
 22 21  1  0  0  0  0
 22 23  2  0  0  0  0
 24 22  2  0  0  0  0
 25 22  1  0  0  0  0
 26 25  1  0  0  0  0
 27 26  1  0  0  0  0
 28 27  1  0  0  0  0
 29 28  1  0  0  0  0
 30 29  1  0  0  0  0
 30 32  1  0  0  0  0
 31 30  1  0  0  0  0
 32 33  2  0  0  0  0
 35 12  1  0  0  0  0
 35 36  1  0  0  0  0
 37 36  1  0  0  0  0
 38 37  1  0  0  0  0
 39 40  1  0  0  0  0
 39 38  1  0  0  0  0
 40 35  1  0  0  0  0
 41 25  1  0  0  0  0
 42 41  1  0  0  0  0
 43 41  1  0  0  0  0
 44 45  1  0  0  0  0
 45  1  1  0  0  0  0
M  END
>  <minimizedAffinity>
-4.68436337

$$$$
