
 OpenBabel09092211523D

 45 50  0  0  0  0  0  0  0  0999 V2000
   11.4720    0.8370    5.0290 C   0  0  0  0  0  0  0  0  0  0  0  0
   11.9440    1.7860    4.1290 C   0  0  0  0  0  3  0  0  0  0  0  0
   11.2150    2.9580    3.9010 C   0  0  0  0  0  3  0  0  0  0  0  0
   10.0070    3.2150    4.5710 C   0  0  0  0  0  0  0  0  0  0  0  0
    9.5060    2.2280    5.4520 C   0  0  0  0  0  0  0  0  0  0  0  0
   10.2590    1.0630    5.6830 C   0  0  0  0  0  3  0  0  0  0  0  0
    8.2330    2.3490    6.1900 C   0  0  0  0  0  3  0  0  0  0  0  0
    7.1370    2.9260    5.6640 C   0  0  0  0  0  0  0  0  0  0  0  0
    7.0490    3.3940    4.2420 C   0  0  0  0  0  2  0  0  0  0  0  0
    7.9370    4.5350    4.0470 N   0  0  0  0  0  0  0  0  0  0  0  0
    9.3000    4.4860    4.2840 C   0  0  0  0  0  0  0  0  0  0  0  0
    9.7640    5.8040    4.2220 C   0  0  0  0  0  0  0  0  0  0  0  0
    8.6610    6.6240    3.7870 C   0  0  0  0  0  0  0  0  0  0  0  0
    8.5100    7.9990    3.4820 C   0  0  0  0  0  3  0  0  0  0  0  0
    7.2610    8.5080    3.0990 C   0  0  0  0  0  3  0  0  0  0  0  0
    6.1540    7.6670    3.0320 C   0  0  0  0  0  0  0  0  0  0  0  0
    6.2800    6.2980    3.3050 C   0  0  0  0  0  3  0  0  0  0  0  0
    7.5380    5.8020    3.6880 C   0  0  0  0  0  0  0  0  0  0  0  0
    4.8510    8.2160    2.5980 C   0  0  0  0  0  0  0  0  0  0  0  0
    4.7690    9.0160    1.6810 O   0  0  0  0  0  0  0  0  0  0  0  0
    3.6930    7.6570    3.1820 N   0  0  0  0  0  0  0  0  0  0  0  0
    3.1840    8.1570    4.7000 S   0  0  0  0  0  0  0  0  0  0  0  0
    3.2020    9.5990    4.6900 O   0  0  0  0  0  0  0  0  0  0  0  0
    1.9630    7.4310    4.9630 O   0  0  0  0  0  0  0  0  0  0  0  0
    4.3820    7.5880    5.7260 N   0  0  0  0  0  0  0  0  0  0  0  0
    4.3990    6.1480    6.0720 C   0  0  0  0  0  2  0  0  0  0  0  0
    3.4370    5.7690    7.2000 C   0  0  0  0  0  2  0  0  0  0  0  0
    4.1060    5.2990    8.4990 C   0  0  0  0  0  2  0  0  0  0  0  0
    4.7230    3.8910    8.4560 C   0  0  0  0  0  2  0  0  0  0  0  0
    5.9440    3.7830    7.6580 N   0  0  0  0  0  0  0  0  0  0  0  0
    7.1540    4.3780    8.2220 C   0  0  0  0  0  1  0  0  0  0  0  0
    5.8890    3.0870    6.4550 C   0  0  0  0  0  0  0  0  0  0  0  0
    4.8390    2.6720    5.9680 O   0  0  0  0  0  0  0  0  0  0  0  0
    2.8970    7.8950    2.5900 H   0  0  0  0  0  0  0  0  0  0  0  0
   11.1610    6.2800    4.5650 C   0  0  0  0  0  3  0  0  0  0  0  0
   11.3620    7.7800    4.2950 C   0  0  0  0  0  2  0  0  0  0  0  0
   12.7870    8.2220    4.6230 C   0  0  0  0  0  2  0  0  0  0  0  0
   13.1760    7.8560    6.0530 C   0  0  0  0  0  2  0  0  0  0  0  0
   12.9890    6.3660    6.3220 C   0  0  0  0  0  2  0  0  0  0  0  0
   11.5650    5.9110    6.0050 C   0  0  0  0  0  2  0  0  0  0  0  0
    5.1420    8.5800    6.5370 C   0  0  0  0  0  3  0  0  0  0  0  0
    4.3670    8.9950    7.7850 C   0  0  0  0  0  1  0  0  0  0  0  0
    6.5450    8.1120    6.9080 C   0  0  0  0  0  1  0  0  0  0  0  0
   13.1160   -0.7920    4.4810 C   0  0  0  0  0  1  0  0  0  0  0  0
   12.0840   -0.3430    5.3500 O   0  0  0  0  0  0  0  0  0  0  0  0
  1 45  1  0  0  0  0
  1  6  1  0  0  0  0
  2  1  2  0  0  0  0
  3  2  1  0  0  0  0
  3  4  2  0  0  0  0
  4  5  1  0  0  0  0
  5  6  2  0  0  0  0
  5  7  1  0  0  0  0
  8  7  2  0  0  0  0
  8 32  1  0  0  0  0
  9  8  1  0  0  0  0
 10  9  1  0  0  0  0
 10 11  1  0  0  0  0
 11  4  1  0  0  0  0
 12 11  2  0  0  0  0
 12 35  1  0  0  0  0
 13 12  1  0  0  0  0
 14 13  2  0  0  0  0
 15 14  1  0  0  0  0
 16 15  2  0  0  0  0
 16 17  1  0  0  0  0
 17 18  2  0  0  0  0
 18 13  1  0  0  0  0
 18 10  1  0  0  0  0
 19 16  1  0  0  0  0
 19 21  1  0  0  0  0
 20 19  2  0  0  0  0
 21 22  1  0  0  0  0
 22 24  2  0  0  0  0
 22 25  1  0  0  0  0
 23 22  2  0  0  0  0
 25 26  1  0  0  0  0
 25 41  1  0  0  0  0
 26 27  1  0  0  0  0
 27 28  1  0  0  0  0
 29 28  1  0  0  0  0
 30 31  1  0  0  0  0
 30 29  1  0  0  0  0
 32 30  1  0  0  0  0
 33 32  2  0  0  0  0
 34 21  1  0  0  0  0
 35 40  1  0  0  0  0
 36 35  1  0  0  0  0
 36 37  1  0  0  0  0
 37 38  1  0  0  0  0
 38 39  1  0  0  0  0
 40 39  1  0  0  0  0
 41 43  1  0  0  0  0
 41 42  1  0  0  0  0
 44 45  1  0  0  0  0
M  END
>  <minimizedAffinity>
-4.50769186

$$$$
