
 OpenBabel09122223533D

 71105  0  0  1  0  0  0  0  0999 V2000
   11.7390   -7.0210  -10.5430 N   0  0  0  0  0  4  0  0  0  0  0  0
   10.4320   -7.7580  -10.1310 C   0  0  0  0  0  2  0  0  0  0  0  0
   10.3040   -8.8000  -11.2020 C   0  0  1  0  0  0  0  0  0  0  0  0
    9.5140  -10.4380  -11.2940 C   0  0  1  0  0  0  0  0  0  0  0  0
   10.6710  -11.4440  -12.4680 C   0  0  2  0  0  0  0  0  0  0  0  0
   12.1780  -11.7390  -12.9080 C   0  0  1  0  0  3  0  0  0  0  0  0
   13.0480  -10.9030  -12.0860 C   0  0  2  0  0  3  0  0  0  0  0  0
   13.4940  -11.9050  -10.9360 C   0  0  1  0  0  3  0  0  0  0  0  0
   13.0300  -11.3410   -9.7380 C   0  0  1  0  0  3  0  0  0  0  0  0
   12.3520  -10.0630  -10.1010 C   0  0  2  0  0  3  0  0  0  0  0  0
   11.2690  -10.4700  -10.8620 C   0  0  1  0  0  0  0  0  0  0  0  0
   10.5640  -11.8270  -10.3320 C   0  0  2  0  0  3  0  0  0  0  0  0
    9.4150  -12.3620  -11.4610 C   0  0  0  0  0  2  0  0  0  0  0  0
    8.9220  -11.0900  -12.9380 C   0  0  1  0  0  3  0  0  0  0  0  0
    7.2760  -11.0950  -13.5930 C   0  0  1  0  0  3  0  0  0  0  0  0
    6.7370  -12.7460  -13.1420 C   0  0  2  0  0  0  0  0  0  0  0  0
    7.6030  -13.7590  -11.6280 C   0  0  2  0  0  3  0  0  0  0  0  0
    7.1270  -14.3540  -10.3830 C   0  0  1  0  0  3  0  0  0  0  0  0
    6.1330  -15.2910  -10.4840 C   0  0  2  0  0  3  0  0  0  0  0  0
    6.9680  -16.5400  -10.6900 C   0  0  0  0  0  0  0  0  0  0  0  0
    7.0050  -16.6390  -12.0920 C   0  0  0  0  0  0  0  0  0  0  0  0
    8.4540  -16.5930  -12.7090 C   0  0  0  0  0  0  0  0  0  0  0  0
    8.7890  -15.4720  -13.6620 C   0  0  2  0  0  3  0  0  0  0  0  0
   10.3490  -15.1010  -13.5670 C   0  0  0  0  0  0  0  0  0  0  0  0
   10.9540  -13.7670  -13.6950 C   0  0  0  0  0  0  0  0  0  0  0  0
   12.2000  -13.2370  -13.2020 C   0  0  0  0  0  0  0  0  0  0  0  0
   12.7000  -14.0940  -12.2070 C   0  0  0  0  0  0  0  0  0  0  0  0
   13.2130  -13.4710  -11.1020 C   0  0  0  0  0  0  0  0  0  0  0  0
   12.7020  -14.3420  -10.1020 C   0  0  0  0  0  0  0  0  0  0  0  0
   12.1680  -13.7560   -8.9550 C   0  0  0  0  0  0  0  0  0  0  0  0
   12.1970  -12.3490   -8.9500 C   0  0  2  0  0  3  0  0  0  0  0  0
   10.8780  -12.2420   -9.0890 C   0  0  2  0  0  3  0  0  0  0  0  0
   10.0870  -13.2830   -8.7910 C   0  0  1  0  0  3  0  0  0  0  0  0
    8.9020  -13.5740   -9.5840 C   0  0  1  0  0  3  0  0  0  0  0  0
    8.7490  -13.3880  -10.9620 C   0  0  2  0  0  3  0  0  0  0  0  0
    8.0740  -14.5430   -9.3630 C   0  0  2  0  0  3  0  0  0  0  0  0
    8.8110  -15.6960   -9.1150 C   0  0  1  0  0  3  0  0  0  0  0  0
    8.4330  -16.6000  -10.0360 C   0  0  0  0  0  0  0  0  0  0  0  0
    9.6940  -16.8000  -10.6410 C   0  0  0  0  0  0  0  0  0  0  0  0
    9.7480  -16.7800  -12.0220 C   0  0  0  0  0  0  0  0  0  0  0  0
   10.8900  -15.9900  -12.6190 C   0  0  2  0  0  3  0  0  0  0  0  0
   12.0350  -15.3480  -11.9190 C   0  0  0  0  0  0  0  0  0  0  0  0
   12.0080  -15.4840  -10.5910 C   0  0  0  0  0  0  0  0  0  0  0  0
   10.7910  -16.1740   -9.9770 C   0  0  0  0  0  0  0  0  0  0  0  0
   10.2350  -15.5540   -8.9320 C   0  0  0  0  0  0  0  0  0  0  0  0
   10.9020  -14.3030   -8.5700 C   0  0  0  0  0  0  0  0  0  0  0  0
   10.0900  -12.6300  -13.6950 C   0  0  1  0  0  3  0  0  0  0  0  0
    8.5630  -12.9470  -13.2420 C   0  0  1  0  0  0  0  0  0  0  0  0
    7.8600  -14.5060  -13.6760 C   0  0  2  0  0  3  0  0  0  0  0  0
    6.1430  -14.4550  -12.8750 C   0  0  1  0  0  0  0  0  0  0  0  0
    5.8650  -12.7590  -11.5360 C   0  0  1  0  0  0  0  0  0  0  0  0
    7.4920  -11.8480  -11.6600 C   0  0  1  0  0  3  0  0  0  0  0  0
    7.9110  -10.6020  -11.0460 C   0  0  2  0  0  3  0  0  0  0  0  0
    7.3620   -9.4830  -11.8320 C   0  0  2  0  0  3  0  0  0  0  0  0
    6.2670  -10.2250  -12.5920 C   0  0  2  0  0  3  0  0  0  0  0  0
    5.1850  -11.5930  -11.9060 C   0  0  1  0  0  3  0  0  0  0  0  0
    4.9170  -12.9360  -12.5700 C   0  0  0  0  0  2  0  0  0  0  0  0
    4.9370  -14.7890  -11.6890 C   0  0  1  0  0  3  0  0  0  0  0  0
    5.6630  -15.8010  -12.6000 C   0  0  2  0  0  3  0  0  0  0  0  0
    9.0990   -8.7090  -12.2010 C   0  0  2  0  0  3  0  0  0  0  0  0
   10.3260   -9.6400  -12.6290 C   0  0  2  0  0  0  0  0  0  0  0  0
   12.2750   -9.2950  -11.3670 C   0  0  2  0  0  0  0  0  0  0  0  0
   12.8740   -7.9230  -11.3380 C   0  0  2  0  0  3  0  0  0  0  0  0
   12.2450   -6.7820   -9.6570 H   0  0  0  0  0  0  0  0  0  0  0  0
   14.2690   -7.8330  -10.6950 C   0  0  0  0  0  0  0  0  0  0  0  0
   14.3310   -6.9420   -9.7960 O   0  0  0  0  0  1  0  0  0  0  0  0
   15.1510   -8.5860  -11.1810 O   0  0  0  0  0  0  0  0  0  0  0  0
   11.5210   -5.6550  -11.2060 C   0  0  0  0  0  2  0  0  0  0  0  0
   12.7110   -3.5950  -11.2490 O   0  0  0  0  0  0  0  0  0  0  0  0
   12.0830   -4.3910  -10.4940 C   0  0  0  0  0  0  0  0  0  0  0  0
   11.9160   -4.3730   -9.2440 O   0  0  0  0  0  1  0  0  0  0  0  0
  1  2  1  0  0  0  0
  1 64  1  0  0  0  0
  3  2  1  1  0  0  0
  4  3  1  0  0  0  0
  4 53  1  0  0  0  0
  4 11  1  0  0  0  0
  6  5  1  0  0  0  0
  6  7  1  0  0  0  0
  7 62  1  0  0  0  0
  7  8  1  0  0  0  0
  8  9  1  0  0  0  0
  9 31  1  0  0  0  0
 10  9  1  0  0  0  0
 11 12  1  0  0  0  0
 11 10  1  0  0  0  0
 12 32  1  0  0  0  0
 13 35  1  0  0  0  0
 13 12  1  0  0  0  0
 14  5  1  0  0  0  0
 15 16  1  0  0  0  0
 15 14  1  0  0  0  0
 15 55  1  0  0  0  0
 16 50  1  0  0  0  0
 16 51  1  0  0  0  0
 17 35  1  0  0  0  0
 17 18  1  0  0  0  0
 18 36  1  0  0  0  0
 19 18  1  0  0  0  0
 20 19  1  0  0  0  0
 20 38  1  0  0  0  0
 21 20  2  0  0  0  0
 22 21  1  0  0  0  0
 22 40  2  0  0  0  0
 23 24  1  0  0  0  0
 23 22  1  0  0  0  0
 24 41  1  0  0  0  0
 25 24  2  0  0  0  0
 25 26  1  0  0  0  0
 26  6  1  0  0  0  0
 26 27  2  0  0  0  0
 27 42  1  0  0  0  0
 27 28  1  0  0  0  0
 28  8  1  0  0  0  0
 28 29  2  0  0  0  0
 29 30  1  0  0  0  0
 30 31  1  0  0  0  0
 30 46  2  0  0  0  0
 32 31  1  0  0  0  0
 32 33  1  0  0  0  0
 33 46  1  0  0  0  0
 34 36  1  0  0  0  0
 34 33  1  0  0  0  0
 35 34  1  0  0  0  0
 36 37  1  0  0  0  0
 37 45  1  0  0  0  0
 38 37  1  0  0  0  0
 39 38  2  0  0  0  0
 39 44  1  0  0  0  0
 40 39  1  0  0  0  0
 41 40  1  0  0  0  0
 41 42  1  0  0  0  0
 42 43  2  0  0  0  0
 43 29  1  0  0  0  0
 43 44  1  0  0  0  0
 44 45  2  0  0  0  0
 45 46  1  0  0  0  0
 47 25  1  0  0  0  0
 47 48  1  0  0  0  0
 47  5  1  0  0  0  0
 48 16  1  0  0  0  0
 48 14  1  0  0  0  0
 49 23  1  0  0  0  0
 49 48  1  0  0  0  0
 49 50  1  0  0  0  0
 50 59  1  0  0  0  0
 50 58  1  0  0  0  0
 52 17  1  0  0  0  0
 52 51  1  0  0  0  0
 52 53  1  0  0  0  0
 54 53  1  0  0  0  0
 55 56  1  0  0  0  0
 55 54  1  0  0  0  0
 56 51  1  0  0  0  0
 57 56  1  0  0  0  0
 57 51  1  0  0  0  0
 58 19  1  0  0  0  0
 59 21  1  0  0  0  0
 59 58  1  0  0  0  0
 60 54  1  0  0  0  0
 60  3  1  0  0  0  0
 61  5  1  0  0  0  0
 61 60  1  0  0  0  0
 61  4  1  0  0  0  0
 61  3  1  0  0  0  0
 62 63  1  0  0  0  0
 62 11  1  0  0  0  0
 62 10  1  0  0  0  0
 63 65  1  0  0  0  0
 63  1  1  0  0  0  0
 65 66  1  0  0  0  0
 67 65  2  0  0  0  0
 68  1  1  0  0  0  0
 68 70  1  0  0  0  0
 69 70  2  0  0  0  0
 70 71  1  0  0  0  0
M  END
>  <minimizedAffinity>
-8.29876041

$$$$

 OpenBabel09122223533D

 71105  0  0  1  0  0  0  0  0999 V2000
    9.0010  -13.7640  -12.9820 N   0  0  0  0  0  4  0  0  0  0  0  0
    9.1930  -12.3930  -13.6930 C   0  0  0  0  0  2  0  0  0  0  0  0
    9.5310  -11.4860  -12.5480 C   0  0  1  0  0  0  0  0  0  0  0  0
   10.4620   -9.9280  -12.3910 C   0  0  1  0  0  0  0  0  0  0  0  0
   11.2840  -10.0540  -10.6490 C   0  0  2  0  0  0  0  0  0  0  0  0
   11.9920  -11.0130   -9.5860 C   0  0  1  0  0  3  0  0  0  0  0  0
   12.0400  -12.3530  -10.1640 C   0  0  2  0  0  3  0  0  0  0  0  0
   13.5110  -12.4120  -10.7630 C   0  0  1  0  0  3  0  0  0  0  0  0
   13.3530  -12.6070  -12.1430 C   0  0  1  0  0  3  0  0  0  0  0  0
   11.8860  -12.6830  -12.3990 C   0  0  2  0  0  3  0  0  0  0  0  0
   11.4270  -11.4210  -12.0630 C   0  0  1  0  0  0  0  0  0  0  0  0
   12.4260  -10.2220  -12.4890 C   0  0  2  0  0  3  0  0  0  0  0  0
   11.8900   -8.7550  -11.8230 C   0  0  0  0  0  2  0  0  0  0  0  0
   10.0480   -8.7360  -11.0180 C   0  0  1  0  0  3  0  0  0  0  0  0
    9.0670   -7.2630  -11.0970 C   0  0  1  0  0  3  0  0  0  0  0  0
   10.3420   -6.0190  -11.3160 C   0  0  2  0  0  0  0  0  0  0  0  0
   12.1540   -6.4900  -12.0680 C   0  0  2  0  0  3  0  0  0  0  0  0
   12.9380   -6.0490  -13.2160 C   0  0  1  0  0  3  0  0  0  0  0  0
   13.2150   -4.7100  -13.3020 C   0  0  2  0  0  3  0  0  0  0  0  0
   14.4920   -4.6530  -12.4870 C   0  0  0  0  0  0  0  0  0  0  0  0
   14.0080   -4.3250  -11.2070 C   0  0  0  0  0  0  0  0  0  0  0  0
   14.3460   -5.3850  -10.0930 C   0  0  0  0  0  0  0  0  0  0  0  0
   13.2000   -6.0640   -9.3840 C   0  0  2  0  0  3  0  0  0  0  0  0
   13.6200   -7.5480   -8.9320 C   0  0  1  0  0  3  0  0  0  0  0  0
   12.7600   -8.7410   -8.8940 C   0  0  2  0  0  3  0  0  0  0  0  0
   13.0810  -10.1450   -8.9590 C   0  0  2  0  0  3  0  0  0  0  0  0
   14.3940  -10.2930   -9.4330 C   0  0  0  0  0  0  0  0  0  0  0  0
   14.5750  -11.2890  -10.3540 C   0  0  0  0  0  0  0  0  0  0  0  0
   15.4630  -10.6150  -11.2350 C   0  0  0  0  0  0  0  0  0  0  0  0
   15.2360  -10.7550  -12.6040 C   0  0  0  0  0  0  0  0  0  0  0  0
   14.1240  -11.5530  -12.9330 C   0  0  2  0  0  3  0  0  0  0  0  0
   13.4080  -10.5170  -13.3640 C   0  0  2  0  0  3  0  0  0  0  0  0
   14.0220   -9.3710  -13.6950 C   0  0  1  0  0  3  0  0  0  0  0  0
   13.4130   -8.0830  -13.4000 C   0  0  1  0  0  3  0  0  0  0  0  0
   12.6290   -7.7630  -12.2850 C   0  0  2  0  0  3  0  0  0  0  0  0
   13.9210   -6.9310  -13.6950 C   0  0  2  0  0  3  0  0  0  0  0  0
   15.2660   -6.9460  -13.3430 C   0  0  1  0  0  3  0  0  0  0  0  0
   15.4460   -5.9440  -12.4640 C   0  0  0  0  0  0  0  0  0  0  0  0
   15.9040   -6.7210  -11.3760 C   0  0  0  0  0  0  0  0  0  0  0  0
   15.3400   -6.4760  -10.1370 C   0  0  0  0  0  0  0  0  0  0  0  0
   14.9570   -7.7020   -9.3410 C   0  0  0  0  0  0  0  0  0  0  0  0
   15.2290   -9.1310   -9.6550 C   0  0  0  0  0  0  0  0  0  0  0  0
   15.8750   -9.3220  -10.8080 C   0  0  0  0  0  0  0  0  0  0  0  0
   16.1530   -8.0950  -11.6740 C   0  0  0  0  0  0  0  0  0  0  0  0
   15.8470   -8.2130  -12.9690 C   0  0  0  0  0  0  0  0  0  0  0  0
   15.2830   -9.5170  -13.3200 C   0  0  0  0  0  0  0  0  0  0  0  0
   11.4750   -8.6690   -9.5120 C   0  0  1  0  0  3  0  0  0  0  0  0
   11.2540   -7.3600  -10.4490 C   0  0  1  0  0  0  0  0  0  0  0  0
   12.0170   -5.8430   -9.9740 C   0  0  2  0  0  3  0  0  0  0  0  0
   11.5630   -4.6590  -11.3830 C   0  0  1  0  0  0  0  0  0  0  0  0
   10.6370   -5.6560  -13.0830 C   0  0  1  0  0  0  0  0  0  0  0  0
   10.5620   -7.4430  -12.5410 C   0  0  1  0  0  3  0  0  0  0  0  0
   10.0000   -8.5980  -13.2140 C   0  0  2  0  0  3  0  0  0  0  0  0
    8.5410   -8.5990  -13.0050 C   0  0  2  0  0  3  0  0  0  0  0  0
    8.3460   -7.1440  -12.5950 C   0  0  2  0  0  3  0  0  0  0  0  0
    9.2550   -5.6670  -13.3070 C   0  0  1  0  0  3  0  0  0  0  0  0
    9.9400   -4.5690  -12.5060 C   0  0  0  0  0  2  0  0  0  0  0  0
   11.7970   -3.7600  -12.8350 C   0  0  1  0  0  3  0  0  0  0  0  0
   12.5450   -3.5920  -11.4970 C   0  0  2  0  0  3  0  0  0  0  0  0
    8.5220  -10.3470  -12.1680 C   0  0  2  0  0  3  0  0  0  0  0  0
    9.6230  -10.7320  -11.0760 C   0  0  2  0  0  0  0  0  0  0  0  0
   10.7140  -12.7680  -11.4940 C   0  0  2  0  0  0  0  0  0  0  0  0
    9.8880  -14.0120  -11.6070 C   0  0  2  0  0  3  0  0  0  0  0  0
    9.3950  -14.4950  -13.6190 H   0  0  0  0  0  0  0  0  0  0  0  0
   10.6860  -15.3260  -11.6390 C   0  0  0  0  0  0  0  0  0  0  0  0
   10.4640  -16.0030  -12.6880 O   0  0  0  0  0  0  0  0  0  0  0  0
   11.3780  -15.5770  -10.6200 O   0  0  0  0  0  1  0  0  0  0  0  0
    7.5390  -14.1940  -12.8080 C   0  0  0  0  0  2  0  0  0  0  0  0
    6.8450  -15.0680  -10.7070 O   0  0  0  0  0  1  0  0  0  0  0  0
    6.8790  -14.0190  -11.4110 C   0  0  0  0  0  0  0  0  0  0  0  0
    6.3830  -12.8780  -11.2020 O   0  0  0  0  0  0  0  0  0  0  0  0
  1 68  1  0  0  0  0
  1 63  1  0  0  0  0
  2  1  1  0  0  0  0
  3  2  1  6  0  0  0
  3  4  1  0  0  0  0
  3 60  1  0  0  0  0
  3 61  1  0  0  0  0
  4 11  1  0  0  0  0
  4 61  1  0  0  0  0
  5  6  1  0  0  0  0
  5 47  1  0  0  0  0
  6 26  1  0  0  0  0
  7  6  1  0  0  0  0
  8 28  1  0  0  0  0
  8  7  1  0  0  0  0
  9  8  1  0  0  0  0
 10  9  1  0  0  0  0
 10 11  1  0  0  0  0
 10 62  1  0  0  0  0
 11 62  1  0  0  0  0
 12 11  1  0  0  0  0
 12 13  1  0  0  0  0
 14  5  1  0  0  0  0
 14 48  1  0  0  0  0
 15 14  1  0  0  0  0
 16 15  1  0  0  0  0
 16 48  1  0  0  0  0
 18 17  1  0  0  0  0
 19 18  1  0  0  0  0
 19 58  1  0  0  0  0
 19 20  1  0  0  0  0
 20 38  2  0  0  0  0
 20 21  1  0  0  0  0
 21 22  2  0  0  0  0
 22 23  1  0  0  0  0
 23 24  1  0  0  0  0
 24 25  1  0  0  0  0
 26 25  1  0  0  0  0
 27 26  1  0  0  0  0
 28 27  2  0  0  0  0
 29 43  1  0  0  0  0
 29 28  1  0  0  0  0
 30 29  2  0  0  0  0
 31 30  1  0  0  0  0
 31  9  1  0  0  0  0
 32 31  1  0  0  0  0
 32 12  1  0  0  0  0
 33 34  1  0  0  0  0
 33 32  1  0  0  0  0
 33 46  1  0  0  0  0
 34 35  1  0  0  0  0
 35 17  1  0  0  0  0
 35 13  1  0  0  0  0
 36 34  1  0  0  0  0
 36 37  1  0  0  0  0
 36 18  1  0  0  0  0
 37 45  1  0  0  0  0
 37 38  1  0  0  0  0
 38 39  1  0  0  0  0
 39 40  1  0  0  0  0
 40 22  1  0  0  0  0
 40 41  2  0  0  0  0
 41 24  1  0  0  0  0
 42 27  1  0  0  0  0
 42 41  1  0  0  0  0
 43 42  2  0  0  0  0
 44 39  2  0  0  0  0
 44 43  1  0  0  0  0
 45 44  1  0  0  0  0
 46 45  2  0  0  0  0
 46 30  1  0  0  0  0
 47 25  1  0  0  0  0
 48 49  1  0  0  0  0
 48 47  1  0  0  0  0
 49 23  1  0  0  0  0
 50 16  1  0  0  0  0
 50 49  1  0  0  0  0
 51 52  1  0  0  0  0
 51 57  1  0  0  0  0
 51 16  1  0  0  0  0
 52 17  1  0  0  0  0
 53 54  1  0  0  0  0
 53 52  1  0  0  0  0
 53  4  1  0  0  0  0
 54 55  1  0  0  0  0
 54 60  1  0  0  0  0
 55 15  1  0  0  0  0
 56 51  1  0  0  0  0
 56 55  1  0  0  0  0
 56 57  1  0  0  0  0
 58 59  1  0  0  0  0
 58 50  1  0  0  0  0
 59 50  1  0  0  0  0
 59 21  1  0  0  0  0
 60 61  1  0  0  0  0
 61  5  1  0  0  0  0
 62  7  1  0  0  0  0
 63 62  1  0  0  0  0
 64  1  1  0  0  0  0
 65 63  1  0  0  0  0
 65 67  1  0  0  0  0
 66 65  2  0  0  0  0
 68 70  1  0  0  0  0
 70 71  2  0  0  0  0
 70 69  1  0  0  0  0
M  END
>  <minimizedAffinity>
-5.5869689

$$$$
