
 OpenBabel09132204463D

 71105  0  0  1  0  0  0  0  0999 V2000
    9.0010  -13.7640  -12.9820 N   0  0  0  0  0  4  0  0  0  0  0  0
    9.1930  -12.3930  -13.6930 C   0  0  0  0  0  2  0  0  0  0  0  0
    9.5310  -11.4860  -12.5480 C   0  0  1  0  0  0  0  0  0  0  0  0
   10.4620   -9.9280  -12.3910 C   0  0  1  0  0  0  0  0  0  0  0  0
   11.2840  -10.0540  -10.6490 C   0  0  2  0  0  0  0  0  0  0  0  0
   11.9920  -11.0130   -9.5860 C   0  0  1  0  0  3  0  0  0  0  0  0
   12.0400  -12.3530  -10.1640 C   0  0  2  0  0  3  0  0  0  0  0  0
   13.5110  -12.4120  -10.7630 C   0  0  1  0  0  3  0  0  0  0  0  0
   13.3530  -12.6070  -12.1430 C   0  0  1  0  0  3  0  0  0  0  0  0
   11.8860  -12.6830  -12.3990 C   0  0  2  0  0  3  0  0  0  0  0  0
   11.4270  -11.4210  -12.0630 C   0  0  1  0  0  0  0  0  0  0  0  0
   12.4260  -10.2220  -12.4890 C   0  0  2  0  0  3  0  0  0  0  0  0
   11.8900   -8.7550  -11.8230 C   0  0  0  0  0  2  0  0  0  0  0  0
   10.0480   -8.7360  -11.0180 C   0  0  1  0  0  3  0  0  0  0  0  0
    9.0670   -7.2630  -11.0970 C   0  0  1  0  0  3  0  0  0  0  0  0
   10.3420   -6.0190  -11.3160 C   0  0  2  0  0  0  0  0  0  0  0  0
   12.1540   -6.4900  -12.0680 C   0  0  2  0  0  3  0  0  0  0  0  0
   12.9380   -6.0490  -13.2160 C   0  0  1  0  0  3  0  0  0  0  0  0
   13.2150   -4.7100  -13.3020 C   0  0  2  0  0  3  0  0  0  0  0  0
   14.4920   -4.6530  -12.4870 C   0  0  0  0  0  0  0  0  0  0  0  0
   14.0080   -4.3250  -11.2070 C   0  0  0  0  0  0  0  0  0  0  0  0
   14.3460   -5.3850  -10.0930 C   0  0  0  0  0  0  0  0  0  0  0  0
   13.2000   -6.0640   -9.3840 C   0  0  2  0  0  3  0  0  0  0  0  0
   13.6200   -7.5480   -8.9320 C   0  0  1  0  0  3  0  0  0  0  0  0
   12.7600   -8.7410   -8.8940 C   0  0  2  0  0  3  0  0  0  0  0  0
   13.0810  -10.1450   -8.9590 C   0  0  2  0  0  3  0  0  0  0  0  0
   14.3940  -10.2930   -9.4330 C   0  0  0  0  0  0  0  0  0  0  0  0
   14.5750  -11.2890  -10.3540 C   0  0  0  0  0  0  0  0  0  0  0  0
   15.4630  -10.6150  -11.2350 C   0  0  0  0  0  0  0  0  0  0  0  0
   15.2360  -10.7550  -12.6040 C   0  0  0  0  0  0  0  0  0  0  0  0
   14.1240  -11.5530  -12.9330 C   0  0  2  0  0  3  0  0  0  0  0  0
   13.4080  -10.5170  -13.3640 C   0  0  2  0  0  3  0  0  0  0  0  0
   14.0220   -9.3710  -13.6950 C   0  0  1  0  0  3  0  0  0  0  0  0
   13.4130   -8.0830  -13.4000 C   0  0  1  0  0  3  0  0  0  0  0  0
   12.6290   -7.7630  -12.2850 C   0  0  2  0  0  3  0  0  0  0  0  0
   13.9210   -6.9310  -13.6950 C   0  0  2  0  0  3  0  0  0  0  0  0
   15.2660   -6.9460  -13.3430 C   0  0  1  0  0  3  0  0  0  0  0  0
   15.4460   -5.9440  -12.4640 C   0  0  0  0  0  0  0  0  0  0  0  0
   15.9040   -6.7210  -11.3760 C   0  0  0  0  0  0  0  0  0  0  0  0
   15.3400   -6.4760  -10.1370 C   0  0  0  0  0  0  0  0  0  0  0  0
   14.9570   -7.7020   -9.3410 C   0  0  0  0  0  0  0  0  0  0  0  0
   15.2290   -9.1310   -9.6550 C   0  0  0  0  0  0  0  0  0  0  0  0
   15.8750   -9.3220  -10.8080 C   0  0  0  0  0  0  0  0  0  0  0  0
   16.1530   -8.0950  -11.6740 C   0  0  0  0  0  0  0  0  0  0  0  0
   15.8470   -8.2130  -12.9690 C   0  0  0  0  0  0  0  0  0  0  0  0
   15.2830   -9.5170  -13.3200 C   0  0  0  0  0  0  0  0  0  0  0  0
   11.4750   -8.6690   -9.5120 C   0  0  1  0  0  3  0  0  0  0  0  0
   11.2540   -7.3600  -10.4490 C   0  0  1  0  0  0  0  0  0  0  0  0
   12.0170   -5.8430   -9.9740 C   0  0  2  0  0  3  0  0  0  0  0  0
   11.5630   -4.6590  -11.3830 C   0  0  1  0  0  0  0  0  0  0  0  0
   10.6370   -5.6560  -13.0830 C   0  0  1  0  0  0  0  0  0  0  0  0
   10.5620   -7.4430  -12.5410 C   0  0  1  0  0  3  0  0  0  0  0  0
   10.0000   -8.5980  -13.2140 C   0  0  2  0  0  3  0  0  0  0  0  0
    8.5410   -8.5990  -13.0050 C   0  0  2  0  0  3  0  0  0  0  0  0
    8.3460   -7.1440  -12.5950 C   0  0  2  0  0  3  0  0  0  0  0  0
    9.2550   -5.6670  -13.3070 C   0  0  1  0  0  3  0  0  0  0  0  0
    9.9400   -4.5690  -12.5060 C   0  0  0  0  0  2  0  0  0  0  0  0
   11.7970   -3.7600  -12.8350 C   0  0  1  0  0  3  0  0  0  0  0  0
   12.5450   -3.5920  -11.4970 C   0  0  2  0  0  3  0  0  0  0  0  0
    8.5220  -10.3470  -12.1680 C   0  0  2  0  0  3  0  0  0  0  0  0
    9.6230  -10.7320  -11.0760 C   0  0  2  0  0  0  0  0  0  0  0  0
   10.7140  -12.7680  -11.4940 C   0  0  2  0  0  0  0  0  0  0  0  0
    9.8880  -14.0120  -11.6070 C   0  0  2  0  0  3  0  0  0  0  0  0
    9.3950  -14.4950  -13.6190 H   0  0  0  0  0  0  0  0  0  0  0  0
   10.6860  -15.3260  -11.6390 C   0  0  0  0  0  0  0  0  0  0  0  0
   10.4640  -16.0030  -12.6880 O   0  0  0  0  0  0  0  0  0  0  0  0
   11.3780  -15.5770  -10.6200 O   0  0  0  0  0  1  0  0  0  0  0  0
    7.5390  -14.1940  -12.8080 C   0  0  0  0  0  2  0  0  0  0  0  0
    6.8450  -15.0680  -10.7070 O   0  0  0  0  0  1  0  0  0  0  0  0
    6.8790  -14.0190  -11.4110 C   0  0  0  0  0  0  0  0  0  0  0  0
    6.3830  -12.8780  -11.2020 O   0  0  0  0  0  0  0  0  0  0  0  0
  1 68  1  0  0  0  0
  1 63  1  0  0  0  0
  2  1  1  0  0  0  0
  3  2  1  6  0  0  0
  3  4  1  0  0  0  0
  3 60  1  0  0  0  0
  3 61  1  0  0  0  0
  4 11  1  0  0  0  0
  4 61  1  0  0  0  0
  5  6  1  0  0  0  0
  5 47  1  0  0  0  0
  6 26  1  0  0  0  0
  7  6  1  0  0  0  0
  8 28  1  0  0  0  0
  8  7  1  0  0  0  0
  9  8  1  0  0  0  0
 10  9  1  0  0  0  0
 10 11  1  0  0  0  0
 10 62  1  0  0  0  0
 11 62  1  0  0  0  0
 12 11  1  0  0  0  0
 12 13  1  0  0  0  0
 14  5  1  0  0  0  0
 14 48  1  0  0  0  0
 15 14  1  0  0  0  0
 16 15  1  0  0  0  0
 16 48  1  0  0  0  0
 18 17  1  0  0  0  0
 19 18  1  0  0  0  0
 19 58  1  0  0  0  0
 19 20  1  0  0  0  0
 20 38  2  0  0  0  0
 20 21  1  0  0  0  0
 21 22  2  0  0  0  0
 22 23  1  0  0  0  0
 23 24  1  0  0  0  0
 24 25  1  0  0  0  0
 26 25  1  0  0  0  0
 27 26  1  0  0  0  0
 28 27  2  0  0  0  0
 29 43  1  0  0  0  0
 29 28  1  0  0  0  0
 30 29  2  0  0  0  0
 31 30  1  0  0  0  0
 31  9  1  0  0  0  0
 32 31  1  0  0  0  0
 32 12  1  0  0  0  0
 33 34  1  0  0  0  0
 33 32  1  0  0  0  0
 33 46  1  0  0  0  0
 34 35  1  0  0  0  0
 35 17  1  0  0  0  0
 35 13  1  0  0  0  0
 36 34  1  0  0  0  0
 36 37  1  0  0  0  0
 36 18  1  0  0  0  0
 37 45  1  0  0  0  0
 37 38  1  0  0  0  0
 38 39  1  0  0  0  0
 39 40  1  0  0  0  0
 40 22  1  0  0  0  0
 40 41  2  0  0  0  0
 41 24  1  0  0  0  0
 42 27  1  0  0  0  0
 42 41  1  0  0  0  0
 43 42  2  0  0  0  0
 44 39  2  0  0  0  0
 44 43  1  0  0  0  0
 45 44  1  0  0  0  0
 46 45  2  0  0  0  0
 46 30  1  0  0  0  0
 47 25  1  0  0  0  0
 48 49  1  0  0  0  0
 48 47  1  0  0  0  0
 49 23  1  0  0  0  0
 50 16  1  0  0  0  0
 50 49  1  0  0  0  0
 51 52  1  0  0  0  0
 51 57  1  0  0  0  0
 51 16  1  0  0  0  0
 52 17  1  0  0  0  0
 53 54  1  0  0  0  0
 53 52  1  0  0  0  0
 53  4  1  0  0  0  0
 54 55  1  0  0  0  0
 54 60  1  0  0  0  0
 55 15  1  0  0  0  0
 56 51  1  0  0  0  0
 56 55  1  0  0  0  0
 56 57  1  0  0  0  0
 58 59  1  0  0  0  0
 58 50  1  0  0  0  0
 59 50  1  0  0  0  0
 59 21  1  0  0  0  0
 60 61  1  0  0  0  0
 61  5  1  0  0  0  0
 62  7  1  0  0  0  0
 63 62  1  0  0  0  0
 64  1  1  0  0  0  0
 65 63  1  0  0  0  0
 65 67  1  0  0  0  0
 66 65  2  0  0  0  0
 68 70  1  0  0  0  0
 70 71  2  0  0  0  0
 70 69  1  0  0  0  0
M  END
>  <minimizedAffinity>
-5.5869689

$$$$
