
 OpenBabel09122222393D

 41 45  0  0  1  0  0  0  0  0999 V2000
   10.2700    9.9010   -1.0160 C   0  0  0  0  0  0  0  0  0  0  0  0
   10.7810    8.8290   -1.7450 C   0  0  0  0  0  3  0  0  0  0  0  0
   10.9210    7.5750   -1.1400 C   0  0  0  0  0  3  0  0  0  0  0  0
   10.5800    7.3850    0.2050 C   0  0  0  0  0  0  0  0  0  0  0  0
   10.1500    8.4870    0.9200 C   0  0  0  0  0  0  0  0  0  0  0  0
    9.9740    9.7440    0.3320 C   0  0  0  0  0  3  0  0  0  0  0  0
    9.8090    8.2630    2.6120 S   0  0  0  0  0  0  0  0  0  0  0  0
   10.8630    8.9530    3.3210 O   0  0  0  0  0  0  0  0  0  0  0  0
    8.4250    8.6400    2.7970 O   0  0  0  0  0  0  0  0  0  0  0  0
    9.9490    6.6960    2.8610 N   0  0  0  0  0  0  0  0  0  0  0  0
   10.3120    5.8240    1.9590 C   0  0  2  0  0  3  0  0  0  0  0  0
   10.6450    6.1320    0.7160 N   0  0  0  0  0  0  0  0  0  0  0  0
    9.7290    6.3580    3.7900 H   0  0  0  0  0  0  0  0  0  0  0  0
   10.9290    5.3580    0.0980 H   0  0  0  0  0  0  0  0  0  0  0  0
   10.3010    4.3570    2.3630 C   0  0  0  0  0  0  0  0  0  0  0  0
   10.3770    3.9300    3.6370 C   0  0  0  0  0  0  0  0  0  0  0  0
   10.3290    2.4940    3.9820 C   0  0  0  0  0  0  0  0  0  0  0  0
   10.6280    2.0060    5.2670 C   0  0  0  0  0  3  0  0  0  0  0  0
   10.5000    0.6470    5.5630 C   0  0  0  0  0  3  0  0  0  0  0  0
   10.0850   -0.2440    4.5810 C   0  0  0  0  0  3  0  0  0  0  0  0
    9.8240    0.2170    3.2920 C   0  0  0  0  0  3  0  0  0  0  0  0
    9.9600    1.5790    2.9790 C   0  0  0  0  0  0  0  0  0  0  0  0
    9.7870    2.0520    1.6500 N   0  0  0  0  0  0  0  0  0  0  0  0
   10.1120    3.3490    1.2760 C   0  0  0  0  0  0  0  0  0  0  0  0
   10.1810    3.7390    0.1060 O   0  0  0  0  0  0  0  0  0  0  0  0
   10.4350    4.8540    4.6740 O   0  0  0  0  0  0  0  0  0  0  0  0
   10.1770    4.4130    5.5100 H   0  0  0  0  0  0  0  0  0  0  0  0
    9.3650    1.1390    0.6470 N   0  0  0  0  0  0  0  0  0  0  0  0
    8.7110    0.4820    1.0810 H   0  0  0  0  0  0  0  0  0  0  0  0
   10.5060    0.4670    0.0130 C   0  0  0  0  0  3  0  0  0  0  0  0
   10.1360   -1.0130   -0.2410 C   0  0  0  0  0  2  0  0  0  0  0  0
   10.8330   -0.8540   -1.6120 C   0  0  0  0  0  2  0  0  0  0  0  0
   10.4800    0.6480   -1.5220 C   0  0  0  0  0  2  0  0  0  0  0  0
   10.0160   11.1700   -1.6170 N   0  0  0  0  0  0  0  0  0  0  0  0
    9.8040   11.1060   -2.6160 H   0  0  0  0  0  0  0  0  0  0  0  0
    8.7770   12.0950   -0.9280 S   0  0  0  0  0  0  0  0  0  0  0  0
    9.3590   13.0260    0.0060 O   0  0  0  0  0  0  0  0  0  0  0  0
    7.7240   11.1860   -0.5570 O   0  0  0  0  0  0  0  0  0  0  0  0
    8.2830   12.1290   -3.5280 C   0  0  0  0  0  1  0  0  0  0  0  0
    8.2530   12.9320   -2.2900 N   0  0  0  0  0  0  0  0  0  0  0  0
    8.8500   13.7560   -2.3820 H   0  0  0  0  0  0  0  0  0  0  0  0
  1  6  1  0  0  0  0
  2  3  1  0  0  0  0
  2  1  2  0  0  0  0
  3  4  2  0  0  0  0
  4 12  1  0  0  0  0
  4  5  1  0  0  0  0
  5  7  1  0  0  0  0
  6  5  2  0  0  0  0
  7  9  2  0  0  0  0
  7 10  1  0  0  0  0
  7  8  2  0  0  0  0
 10 13  1  0  0  0  0
 11 15  1  6  0  0  0
 11 10  1  0  0  0  0
 12 11  1  0  0  0  0
 14 12  1  0  0  0  0
 15 16  2  0  0  0  0
 16 17  1  0  0  0  0
 16 26  1  0  0  0  0
 17 18  1  0  0  0  0
 18 19  2  0  0  0  0
 20 19  1  0  0  0  0
 21 20  2  0  0  0  0
 22 21  1  0  0  0  0
 22 17  2  0  0  0  0
 23 22  1  0  0  0  0
 24 23  1  0  0  0  0
 24 15  1  0  0  0  0
 25 24  2  0  0  0  0
 26 27  1  0  0  0  0
 28 29  1  0  0  0  0
 28 23  1  0  0  0  0
 30 28  1  0  0  0  0
 31 30  1  0  0  0  0
 32 33  1  0  0  0  0
 32 31  1  0  0  0  0
 33 30  1  0  0  0  0
 34  1  1  0  0  0  0
 34 36  1  0  0  0  0
 35 34  1  0  0  0  0
 36 38  2  0  0  0  0
 36 37  2  0  0  0  0
 39 40  1  0  0  0  0
 40 36  1  0  0  0  0
 41 40  1  0  0  0  0
M  END
>  <minimizedAffinity>
-7.06392574

$$$$
