
 OpenBabel09122222393D

 41 45  0  0  1  0  0  0  0  0999 V2000
    9.5210   11.1840    0.3620 C   0  0  0  0  0  0  0  0  0  0  0  0
    9.2750   10.9200    1.7080 C   0  0  0  0  0  3  0  0  0  0  0  0
    9.2680    9.5990    2.1720 C   0  0  0  0  0  3  0  0  0  0  0  0
    9.4780    8.5290    1.2950 C   0  0  0  0  0  0  0  0  0  0  0  0
    9.6430    8.8210   -0.0470 C   0  0  0  0  0  0  0  0  0  0  0  0
    9.6820   10.1320   -0.5320 C   0  0  0  0  0  3  0  0  0  0  0  0
    9.8190    7.4820   -1.1450 S   0  0  0  0  0  0  0  0  0  0  0  0
    8.5940    7.4370   -1.9110 O   0  0  0  0  0  0  0  0  0  0  0  0
   11.0940    7.6650   -1.8010 O   0  0  0  0  0  0  0  0  0  0  0  0
    9.9020    6.1900   -0.2160 N   0  0  0  0  0  0  0  0  0  0  0  0
    9.7890    6.1960    1.0860 C   0  0  2  0  0  3  0  0  0  0  0  0
    9.5560    7.2780    1.8090 N   0  0  0  0  0  0  0  0  0  0  0  0
   10.0660    5.3040   -0.6770 H   0  0  0  0  0  0  0  0  0  0  0  0
    9.4710    7.1550    2.8290 H   0  0  0  0  0  0  0  0  0  0  0  0
    9.9880    4.8710    1.8080 C   0  0  0  0  0  0  0  0  0  0  0  0
   10.3240    4.7680    3.1070 C   0  0  0  0  0  0  0  0  0  0  0  0
   10.4720    3.4580    3.7720 C   0  0  0  0  0  0  0  0  0  0  0  0
   11.0350    3.3090    5.0530 C   0  0  0  0  0  3  0  0  0  0  0  0
   11.0890    2.0570    5.6690 C   0  0  0  0  0  3  0  0  0  0  0  0
   10.5950    0.9360    5.0140 C   0  0  0  0  0  3  0  0  0  0  0  0
   10.0720    1.0580    3.7290 C   0  0  0  0  0  3  0  0  0  0  0  0
   10.0220    2.3100    3.0940 C   0  0  0  0  0  0  0  0  0  0  0  0
    9.5760    2.4400    1.7510 N   0  0  0  0  0  0  0  0  0  0  0  0
    9.7080    3.6220    1.0360 C   0  0  0  0  0  0  0  0  0  0  0  0
    9.5340    3.7220   -0.1830 O   0  0  0  0  0  0  0  0  0  0  0  0
   10.4740    5.9160    3.8760 O   0  0  0  0  0  0  0  0  0  0  0  0
   10.4090    5.6780    4.8230 H   0  0  0  0  0  0  0  0  0  0  0  0
    9.0740    1.2910    1.0810 N   0  0  0  0  0  0  0  0  0  0  0  0
    8.4250    0.8200    1.7180 H   0  0  0  0  0  0  0  0  0  0  0  0
   10.1590    0.4130    0.6260 C   0  0  0  0  0  3  0  0  0  0  0  0
    9.6360   -1.0420    0.5740 C   0  0  0  0  0  2  0  0  0  0  0  0
   10.4060   -1.1720   -0.7600 C   0  0  0  0  0  2  0  0  0  0  0  0
   10.2220    0.3550   -0.9180 C   0  0  0  0  0  2  0  0  0  0  0  0
    9.6360   12.5150   -0.1380 N   0  0  0  0  0  0  0  0  0  0  0  0
   10.3210   12.6020   -0.8940 H   0  0  0  0  0  0  0  0  0  0  0  0
    8.2120   13.2340   -0.7040 S   0  0  0  0  0  0  0  0  0  0  0  0
    8.5560   14.4350   -1.4230 O   0  0  0  0  0  0  0  0  0  0  0  0
    7.2710   13.2290    0.3860 O   0  0  0  0  0  0  0  0  0  0  0  0
    8.0000   12.3950   -3.2060 C   0  0  0  0  0  1  0  0  0  0  0  0
    7.7120   12.0580   -1.7970 N   0  0  0  0  0  0  0  0  0  0  0  0
    6.7080   11.9280   -1.6580 H   0  0  0  0  0  0  0  0  0  0  0  0
  1  2  1  0  0  0  0
  2  3  2  0  0  0  0
  4 12  1  0  0  0  0
  4  3  1  0  0  0  0
  5  4  2  0  0  0  0
  6  5  1  0  0  0  0
  6  1  2  0  0  0  0
  7 10  1  0  0  0  0
  7  5  1  0  0  0  0
  8  7  2  0  0  0  0
  9  7  2  0  0  0  0
 10 11  1  0  0  0  0
 11 15  1  1  0  0  0
 11 12  1  0  0  0  0
 12 14  1  0  0  0  0
 13 10  1  0  0  0  0
 15 16  2  0  0  0  0
 16 17  1  0  0  0  0
 16 26  1  0  0  0  0
 17 18  1  0  0  0  0
 18 19  2  0  0  0  0
 20 19  1  0  0  0  0
 21 20  2  0  0  0  0
 22 21  1  0  0  0  0
 22 17  2  0  0  0  0
 23 22  1  0  0  0  0
 24 23  1  0  0  0  0
 24 15  1  0  0  0  0
 25 24  2  0  0  0  0
 26 27  1  0  0  0  0
 28 29  1  0  0  0  0
 28 23  1  0  0  0  0
 30 28  1  0  0  0  0
 31 30  1  0  0  0  0
 32 31  1  0  0  0  0
 33 32  1  0  0  0  0
 33 30  1  0  0  0  0
 34  1  1  0  0  0  0
 35 34  1  0  0  0  0
 36 34  1  0  0  0  0
 36 38  2  0  0  0  0
 37 36  2  0  0  0  0
 39 40  1  0  0  0  0
 40 41  1  0  0  0  0
 40 36  1  0  0  0  0
M  END
>  <minimizedAffinity>
-7.30323219

$$$$
