
 OpenBabel09122217463D

 41 45  0  0  1  0  0  0  0  0999 V2000
    9.5210   11.1840    0.3620 C   0  0  0  0  0  0  0  0  0  0  0  0
    9.2750   10.9200    1.7080 C   0  0  0  0  0  3  0  0  0  0  0  0
    9.2680    9.5990    2.1720 C   0  0  0  0  0  3  0  0  0  0  0  0
    9.4780    8.5290    1.2950 C   0  0  0  0  0  0  0  0  0  0  0  0
    9.6430    8.8210   -0.0470 C   0  0  0  0  0  0  0  0  0  0  0  0
    9.6820   10.1320   -0.5320 C   0  0  0  0  0  3  0  0  0  0  0  0
    9.8190    7.4820   -1.1450 S   0  0  0  0  0  0  0  0  0  0  0  0
    8.5940    7.4370   -1.9110 O   0  0  0  0  0  0  0  0  0  0  0  0
   11.0940    7.6650   -1.8010 O   0  0  0  0  0  0  0  0  0  0  0  0
    9.9020    6.1900   -0.2160 N   0  0  0  0  0  0  0  0  0  0  0  0
    9.7890    6.1960    1.0860 C   0  0  2  0  0  3  0  0  0  0  0  0
    9.5560    7.2780    1.8090 N   0  0  0  0  0  0  0  0  0  0  0  0
   10.0660    5.3040   -0.6770 H   0  0  0  0  0  0  0  0  0  0  0  0
    9.4710    7.1550    2.8290 H   0  0  0  0  0  0  0  0  0  0  0  0
    9.9880    4.8710    1.8080 C   0  0  0  0  0  0  0  0  0  0  0  0
   10.3240    4.7680    3.1070 C   0  0  0  0  0  0  0  0  0  0  0  0
   10.4720    3.4580    3.7720 C   0  0  0  0  0  0  0  0  0  0  0  0
   11.0350    3.3090    5.0530 C   0  0  0  0  0  3  0  0  0  0  0  0
   11.0890    2.0570    5.6690 C   0  0  0  0  0  3  0  0  0  0  0  0
   10.5950    0.9360    5.0140 C   0  0  0  0  0  3  0  0  0  0  0  0
   10.0720    1.0580    3.7290 C   0  0  0  0  0  3  0  0  0  0  0  0
   10.0220    2.3100    3.0940 C   0  0  0  0  0  0  0  0  0  0  0  0
    9.5760    2.4400    1.7510 N   0  0  0  0  0  0  0  0  0  0  0  0
    9.7080    3.6220    1.0360 C   0  0  0  0  0  0  0  0  0  0  0  0
    9.5340    3.7220   -0.1830 O   0  0  0  0  0  0  0  0  0  0  0  0
   10.4740    5.9160    3.8760 O   0  0  0  0  0  0  0  0  0  0  0  0
   10.4090    5.6780    4.8230 H   0  0  0  0  0  0  0  0  0  0  0  0
    9.0740    1.2910    1.0810 N   0  0  0  0  0  0  0  0  0  0  0  0
    8.4250    0.8200    1.7180 H   0  0  0  0  0  0  0  0  0  0  0  0
   10.1590    0.4130    0.6260 C   0  0  0  0  0  3  0  0  0  0  0  0
    9.6360   -1.0420    0.5740 C   0  0  0  0  0  2  0  0  0  0  0  0
   10.4060   -1.1720   -0.7600 C   0  0  0  0  0  2  0  0  0  0  0  0
   10.2220    0.3550   -0.9180 C   0  0  0  0  0  2  0  0  0  0  0  0
    9.6360   12.5150   -0.1380 N   0  0  0  0  0  0  0  0  0  0  0  0
   10.3210   12.6020   -0.8940 H   0  0  0  0  0  0  0  0  0  0  0  0
    8.2120   13.2340   -0.7040 S   0  0  0  0  0  0  0  0  0  0  0  0
    8.5560   14.4350   -1.4230 O   0  0  0  0  0  0  0  0  0  0  0  0
    7.2710   13.2290    0.3860 O   0  0  0  0  0  0  0  0  0  0  0  0
    8.0000   12.3950   -3.2060 C   0  0  0  0  0  1  0  0  0  0  0  0
    7.7120   12.0580   -1.7970 N   0  0  0  0  0  0  0  0  0  0  0  0
    6.7080   11.9280   -1.6580 H   0  0  0  0  0  0  0  0  0  0  0  0
  1  2  1  0  0  0  0
  2  3  2  0  0  0  0
  4 12  1  0  0  0  0
  4  3  1  0  0  0  0
  5  4  2  0  0  0  0
  6  5  1  0  0  0  0
  6  1  2  0  0  0  0
  7 10  1  0  0  0  0
  7  5  1  0  0  0  0
  8  7  2  0  0  0  0
  9  7  2  0  0  0  0
 10 11  1  0  0  0  0
 11 15  1  1  0  0  0
 11 12  1  0  0  0  0
 12 14  1  0  0  0  0
 13 10  1  0  0  0  0
 15 16  2  0  0  0  0
 16 17  1  0  0  0  0
 16 26  1  0  0  0  0
 17 18  1  0  0  0  0
 18 19  2  0  0  0  0
 20 19  1  0  0  0  0
 21 20  2  0  0  0  0
 22 21  1  0  0  0  0
 22 17  2  0  0  0  0
 23 22  1  0  0  0  0
 24 23  1  0  0  0  0
 24 15  1  0  0  0  0
 25 24  2  0  0  0  0
 26 27  1  0  0  0  0
 28 29  1  0  0  0  0
 28 23  1  0  0  0  0
 30 28  1  0  0  0  0
 31 30  1  0  0  0  0
 32 31  1  0  0  0  0
 33 32  1  0  0  0  0
 33 30  1  0  0  0  0
 34  1  1  0  0  0  0
 35 34  1  0  0  0  0
 36 34  1  0  0  0  0
 36 38  2  0  0  0  0
 37 36  2  0  0  0  0
 39 40  1  0  0  0  0
 40 41  1  0  0  0  0
 40 36  1  0  0  0  0
M  END
>  <minimizedAffinity>
-7.30323219

$$$$

 OpenBabel09122217463D

 41 45  0  0  1  0  0  0  0  0999 V2000
   10.2700    9.9010   -1.0160 C   0  0  0  0  0  0  0  0  0  0  0  0
   10.7810    8.8290   -1.7450 C   0  0  0  0  0  3  0  0  0  0  0  0
   10.9210    7.5750   -1.1400 C   0  0  0  0  0  3  0  0  0  0  0  0
   10.5800    7.3850    0.2050 C   0  0  0  0  0  0  0  0  0  0  0  0
   10.1500    8.4870    0.9200 C   0  0  0  0  0  0  0  0  0  0  0  0
    9.9740    9.7440    0.3320 C   0  0  0  0  0  3  0  0  0  0  0  0
    9.8090    8.2630    2.6120 S   0  0  0  0  0  0  0  0  0  0  0  0
   10.8630    8.9530    3.3210 O   0  0  0  0  0  0  0  0  0  0  0  0
    8.4250    8.6400    2.7970 O   0  0  0  0  0  0  0  0  0  0  0  0
    9.9490    6.6960    2.8610 N   0  0  0  0  0  0  0  0  0  0  0  0
   10.3120    5.8240    1.9590 C   0  0  2  0  0  3  0  0  0  0  0  0
   10.6450    6.1320    0.7160 N   0  0  0  0  0  0  0  0  0  0  0  0
    9.7290    6.3580    3.7900 H   0  0  0  0  0  0  0  0  0  0  0  0
   10.9290    5.3580    0.0980 H   0  0  0  0  0  0  0  0  0  0  0  0
   10.3010    4.3570    2.3630 C   0  0  0  0  0  0  0  0  0  0  0  0
   10.3770    3.9300    3.6370 C   0  0  0  0  0  0  0  0  0  0  0  0
   10.3290    2.4940    3.9820 C   0  0  0  0  0  0  0  0  0  0  0  0
   10.6280    2.0060    5.2670 C   0  0  0  0  0  3  0  0  0  0  0  0
   10.5000    0.6470    5.5630 C   0  0  0  0  0  3  0  0  0  0  0  0
   10.0850   -0.2440    4.5810 C   0  0  0  0  0  3  0  0  0  0  0  0
    9.8240    0.2170    3.2920 C   0  0  0  0  0  3  0  0  0  0  0  0
    9.9600    1.5790    2.9790 C   0  0  0  0  0  0  0  0  0  0  0  0
    9.7870    2.0520    1.6500 N   0  0  0  0  0  0  0  0  0  0  0  0
   10.1120    3.3490    1.2760 C   0  0  0  0  0  0  0  0  0  0  0  0
   10.1810    3.7390    0.1060 O   0  0  0  0  0  0  0  0  0  0  0  0
   10.4350    4.8540    4.6740 O   0  0  0  0  0  0  0  0  0  0  0  0
   10.1770    4.4130    5.5100 H   0  0  0  0  0  0  0  0  0  0  0  0
    9.3650    1.1390    0.6470 N   0  0  0  0  0  0  0  0  0  0  0  0
    8.7110    0.4820    1.0810 H   0  0  0  0  0  0  0  0  0  0  0  0
   10.5060    0.4670    0.0130 C   0  0  0  0  0  3  0  0  0  0  0  0
   10.1360   -1.0130   -0.2410 C   0  0  0  0  0  2  0  0  0  0  0  0
   10.8330   -0.8540   -1.6120 C   0  0  0  0  0  2  0  0  0  0  0  0
   10.4800    0.6480   -1.5220 C   0  0  0  0  0  2  0  0  0  0  0  0
   10.0160   11.1700   -1.6170 N   0  0  0  0  0  0  0  0  0  0  0  0
    9.8040   11.1060   -2.6160 H   0  0  0  0  0  0  0  0  0  0  0  0
    8.7770   12.0950   -0.9280 S   0  0  0  0  0  0  0  0  0  0  0  0
    9.3590   13.0260    0.0060 O   0  0  0  0  0  0  0  0  0  0  0  0
    7.7240   11.1860   -0.5570 O   0  0  0  0  0  0  0  0  0  0  0  0
    8.2830   12.1290   -3.5280 C   0  0  0  0  0  1  0  0  0  0  0  0
    8.2530   12.9320   -2.2900 N   0  0  0  0  0  0  0  0  0  0  0  0
    8.8500   13.7560   -2.3820 H   0  0  0  0  0  0  0  0  0  0  0  0
  1  6  1  0  0  0  0
  2  3  1  0  0  0  0
  2  1  2  0  0  0  0
  3  4  2  0  0  0  0
  4 12  1  0  0  0  0
  4  5  1  0  0  0  0
  5  7  1  0  0  0  0
  6  5  2  0  0  0  0
  7  9  2  0  0  0  0
  7 10  1  0  0  0  0
  7  8  2  0  0  0  0
 10 13  1  0  0  0  0
 11 15  1  6  0  0  0
 11 10  1  0  0  0  0
 12 11  1  0  0  0  0
 14 12  1  0  0  0  0
 15 16  2  0  0  0  0
 16 17  1  0  0  0  0
 16 26  1  0  0  0  0
 17 18  1  0  0  0  0
 18 19  2  0  0  0  0
 20 19  1  0  0  0  0
 21 20  2  0  0  0  0
 22 21  1  0  0  0  0
 22 17  2  0  0  0  0
 23 22  1  0  0  0  0
 24 23  1  0  0  0  0
 24 15  1  0  0  0  0
 25 24  2  0  0  0  0
 26 27  1  0  0  0  0
 28 29  1  0  0  0  0
 28 23  1  0  0  0  0
 30 28  1  0  0  0  0
 31 30  1  0  0  0  0
 32 33  1  0  0  0  0
 32 31  1  0  0  0  0
 33 30  1  0  0  0  0
 34  1  1  0  0  0  0
 34 36  1  0  0  0  0
 35 34  1  0  0  0  0
 36 38  2  0  0  0  0
 36 37  2  0  0  0  0
 39 40  1  0  0  0  0
 40 36  1  0  0  0  0
 41 40  1  0  0  0  0
M  END
>  <minimizedAffinity>
-7.06392574

$$$$

 OpenBabel09122217463D

 41 45  0  0  1  0  0  0  0  0999 V2000
   10.7680    8.1070    1.7250 C   0  0  0  0  0  0  0  0  0  0  0  0
   10.7290    7.8780    3.0990 C   0  0  0  0  0  3  0  0  0  0  0  0
   10.5220    6.5830    3.5860 C   0  0  0  0  0  3  0  0  0  0  0  0
   10.3230    5.5090    2.7100 C   0  0  0  0  0  0  0  0  0  0  0  0
   10.2900    5.7830    1.3550 C   0  0  0  0  0  0  0  0  0  0  0  0
   10.5230    7.0630    0.8410 C   0  0  0  0  0  3  0  0  0  0  0  0
    9.9580    4.4590    0.2760 S   0  0  0  0  0  0  0  0  0  0  0  0
    8.6310    4.6980   -0.2450 O   0  0  0  0  0  0  0  0  0  0  0  0
   11.0950    4.3710   -0.6130 O   0  0  0  0  0  0  0  0  0  0  0  0
    9.9310    3.1630    1.2020 N   0  0  0  0  0  0  0  0  0  0  0  0
   10.0710    3.1690    2.5010 C   0  0  2  0  0  3  0  0  0  0  0  0
   10.2210    4.2620    3.2300 N   0  0  0  0  0  0  0  0  0  0  0  0
    9.8060    2.2710    0.7400 H   0  0  0  0  0  0  0  0  0  0  0  0
   10.3060    4.1410    4.2500 H   0  0  0  0  0  0  0  0  0  0  0  0
   10.1070    1.8200    3.2040 C   0  0  0  0  0  0  0  0  0  0  0  0
   10.5010    1.6480    4.4790 C   0  0  0  0  0  0  0  0  0  0  0  0
   10.4860    0.3220    5.1290 C   0  0  0  0  0  0  0  0  0  0  0  0
   11.0950    0.0710    6.3710 C   0  0  0  0  0  3  0  0  0  0  0  0
   10.9940   -1.1830    6.9780 C   0  0  0  0  0  3  0  0  0  0  0  0
   10.2970   -2.2070    6.3490 C   0  0  0  0  0  3  0  0  0  0  0  0
    9.7230   -1.9880    5.0980 C   0  0  0  0  0  3  0  0  0  0  0  0
    9.8270   -0.7350    4.4730 C   0  0  0  0  0  0  0  0  0  0  0  0
    9.3270   -0.5200    3.1600 N   0  0  0  0  0  0  0  0  0  0  0  0
    9.5950    0.6380    2.4450 C   0  0  0  0  0  0  0  0  0  0  0  0
    9.3660    0.7800    1.2390 O   0  0  0  0  0  0  0  0  0  0  0  0
   10.8700    2.7500    5.2430 O   0  0  0  0  0  0  0  0  0  0  0  0
   10.8250    2.5110    6.1910 H   0  0  0  0  0  0  0  0  0  0  0  0
    8.6160   -1.5700    2.5180 N   0  0  0  0  0  0  0  0  0  0  0  0
    8.0560   -2.0460    3.2290 H   0  0  0  0  0  0  0  0  0  0  0  0
    9.5230   -2.4800    1.8070 C   0  0  0  0  0  3  0  0  0  0  0  0
    8.8180   -3.8450    1.6250 C   0  0  0  0  0  2  0  0  0  0  0  0
    9.4080   -3.8530    0.1960 C   0  0  0  0  0  2  0  0  0  0  0  0
    9.4020   -2.3090    0.2750 C   0  0  0  0  0  2  0  0  0  0  0  0
   11.0750    9.3900    1.1810 N   0  0  0  0  0  0  0  0  0  0  0  0
   11.6090    9.3390    0.3090 H   0  0  0  0  0  0  0  0  0  0  0  0
    9.7620   10.4130    0.8740 S   0  0  0  0  0  0  0  0  0  0  0  0
    8.5990    9.8850    1.5420 O   0  0  0  0  0  0  0  0  0  0  0  0
    9.7750   10.7100   -0.5350 O   0  0  0  0  0  0  0  0  0  0  0  0
    9.3880   12.2180    2.7730 C   0  0  0  0  0  1  0  0  0  0  0  0
   10.2830   11.7960    1.6770 N   0  0  0  0  0  0  0  0  0  0  0  0
   10.3650   12.5350    0.9760 H   0  0  0  0  0  0  0  0  0  0  0  0
  1  2  1  0  0  0  0
  2  3  2  0  0  0  0
  4 12  1  0  0  0  0
  4  3  1  0  0  0  0
  5  4  2  0  0  0  0
  6  5  1  0  0  0  0
  6  1  2  0  0  0  0
  7 10  1  0  0  0  0
  7  5  1  0  0  0  0
  8  7  2  0  0  0  0
  9  7  2  0  0  0  0
 10 11  1  0  0  0  0
 11 15  1  6  0  0  0
 11 12  1  0  0  0  0
 12 14  1  0  0  0  0
 13 10  1  0  0  0  0
 15 16  2  0  0  0  0
 16 17  1  0  0  0  0
 16 26  1  0  0  0  0
 17 18  1  0  0  0  0
 18 19  2  0  0  0  0
 20 19  1  0  0  0  0
 21 20  2  0  0  0  0
 22 21  1  0  0  0  0
 22 17  2  0  0  0  0
 23 22  1  0  0  0  0
 24 23  1  0  0  0  0
 24 15  1  0  0  0  0
 25 24  2  0  0  0  0
 26 27  1  0  0  0  0
 28 23  1  0  0  0  0
 28 29  1  0  0  0  0
 30 28  1  0  0  0  0
 31 30  1  0  0  0  0
 32 33  1  0  0  0  0
 32 31  1  0  0  0  0
 33 30  1  0  0  0  0
 34  1  1  0  0  0  0
 35 34  1  0  0  0  0
 36 34  1  0  0  0  0
 36 37  2  0  0  0  0
 36 40  1  0  0  0  0
 38 36  2  0  0  0  0
 40 39  1  0  0  0  0
 41 40  1  0  0  0  0
M  END
>  <minimizedAffinity>
-6.90680885

$$$$

 OpenBabel09122217463D

 41 45  0  0  1  0  0  0  0  0999 V2000
   10.2340   11.3180   -2.0600 C   0  0  0  0  0  0  0  0  0  0  0  0
   10.6590   10.1560   -2.7020 C   0  0  0  0  0  3  0  0  0  0  0  0
   10.7630    8.9590   -1.9840 C   0  0  0  0  0  3  0  0  0  0  0  0
   10.4720    8.9150   -0.6150 C   0  0  0  0  0  0  0  0  0  0  0  0
   10.1280   10.1010    0.0070 C   0  0  0  0  0  0  0  0  0  0  0  0
    9.9880   11.3040   -0.6920 C   0  0  0  0  0  3  0  0  0  0  0  0
    9.8500   10.0560    1.7240 S   0  0  0  0  0  0  0  0  0  0  0  0
   10.9660   10.7520    2.3230 O   0  0  0  0  0  0  0  0  0  0  0  0
    8.4960   10.5210    1.9250 O   0  0  0  0  0  0  0  0  0  0  0  0
    9.9240    8.5140    2.1180 N   0  0  0  0  0  0  0  0  0  0  0  0
   10.2040    7.5430    1.2900 C   0  0  2  0  0  3  0  0  0  0  0  0
   10.4970    7.7140    0.0120 N   0  0  0  0  0  0  0  0  0  0  0  0
    9.7280    8.2770    3.0820 H   0  0  0  0  0  0  0  0  0  0  0  0
   10.7160    6.8710   -0.5400 H   0  0  0  0  0  0  0  0  0  0  0  0
   10.1390    6.1230    1.8340 C   0  0  0  0  0  0  0  0  0  0  0  0
    9.9610    5.0330    1.0650 C   0  0  0  0  0  0  0  0  0  0  0  0
    9.9380    3.6710    1.6360 C   0  0  0  0  0  0  0  0  0  0  0  0
    9.5360    2.5400    0.9040 C   0  0  0  0  0  3  0  0  0  0  0  0
    9.5980    1.2630    1.4660 C   0  0  0  0  0  3  0  0  0  0  0  0
   10.0510    1.0970    2.7690 C   0  0  0  0  0  3  0  0  0  0  0  0
   10.4150    2.2110    3.5230 C   0  0  0  0  0  3  0  0  0  0  0  0
   10.3450    3.5010    2.9730 C   0  0  0  0  0  0  0  0  0  0  0  0
   10.6260    4.6540    3.7550 N   0  0  0  0  0  0  0  0  0  0  0  0
   10.3690    5.9400    3.2990 C   0  0  0  0  0  0  0  0  0  0  0  0
   10.3950    6.9490    4.0120 O   0  0  0  0  0  0  0  0  0  0  0  0
    9.8620    5.1680   -0.3150 O   0  0  0  0  0  0  0  0  0  0  0  0
   10.0470    4.3030   -0.7350 H   0  0  0  0  0  0  0  0  0  0  0  0
   11.0860    4.4830    5.0880 N   0  0  0  0  0  0  0  0  0  0  0  0
   11.6740    3.6450    5.1080 H   0  0  0  0  0  0  0  0  0  0  0  0
    9.9710    4.4160    6.0410 C   0  0  0  0  0  3  0  0  0  0  0  0
   10.0430    3.0710    6.8010 C   0  0  0  0  0  2  0  0  0  0  0  0
    9.6830    3.8770    8.0700 C   0  0  0  0  0  2  0  0  0  0  0  0
   10.3370    5.0950    7.3800 C   0  0  0  0  0  2  0  0  0  0  0  0
   10.0160   12.5360   -2.7700 N   0  0  0  0  0  0  0  0  0  0  0  0
   10.8090   12.8060   -3.3580 H   0  0  0  0  0  0  0  0  0  0  0  0
    8.6470   12.5950   -3.7650 S   0  0  0  0  0  0  0  0  0  0  0  0
    8.6950   13.8050   -4.5450 O   0  0  0  0  0  0  0  0  0  0  0  0
    7.5130   12.2460   -2.9490 O   0  0  0  0  0  0  0  0  0  0  0  0
    7.7630   10.7420   -5.4350 C   0  0  0  0  0  1  0  0  0  0  0  0
    8.9630   11.2790   -4.7640 N   0  0  0  0  0  0  0  0  0  0  0  0
    9.4010   10.5610   -4.1830 H   0  0  0  0  0  0  0  0  0  0  0  0
  1  6  1  0  0  0  0
  2  1  2  0  0  0  0
  2  3  1  0  0  0  0
  3  4  2  0  0  0  0
  4  5  1  0  0  0  0
  4 12  1  0  0  0  0
  5  7  1  0  0  0  0
  6  5  2  0  0  0  0
  7  9  2  0  0  0  0
  7 10  1  0  0  0  0
  7  8  2  0  0  0  0
 10 13  1  0  0  0  0
 11 15  1  6  0  0  0
 11 10  1  0  0  0  0
 12 11  1  0  0  0  0
 14 12  1  0  0  0  0
 15 24  1  0  0  0  0
 16 17  1  0  0  0  0
 16 15  2  0  0  0  0
 17 22  1  0  0  0  0
 18 19  1  0  0  0  0
 18 17  2  0  0  0  0
 19 20  2  0  0  0  0
 20 21  1  0  0  0  0
 22 21  2  0  0  0  0
 22 23  1  0  0  0  0
 23 28  1  0  0  0  0
 24 23  1  0  0  0  0
 24 25  2  0  0  0  0
 26 16  1  0  0  0  0
 27 26  1  0  0  0  0
 28 29  1  0  0  0  0
 28 30  1  0  0  0  0
 30 31  1  0  0  0  0
 30 33  1  0  0  0  0
 31 32  1  0  0  0  0
 33 32  1  0  0  0  0
 34  1  1  0  0  0  0
 35 34  1  0  0  0  0
 36 38  2  0  0  0  0
 36 34  1  0  0  0  0
 37 36  2  0  0  0  0
 39 40  1  0  0  0  0
 40 41  1  0  0  0  0
 40 36  1  0  0  0  0
M  END
>  <minimizedAffinity>
-6.72268867

$$$$

 OpenBabel09122217463D

 41 45  0  0  1  0  0  0  0  0999 V2000
   10.4220    1.8230    3.8850 C   0  0  0  0  0  0  0  0  0  0  0  0
   10.7570    2.7600    4.8590 C   0  0  0  0  0  3  0  0  0  0  0  0
   10.7660    4.1240    4.5440 C   0  0  0  0  0  3  0  0  0  0  0  0
   10.4690    4.5630    3.2490 C   0  0  0  0  0  0  0  0  0  0  0  0
   10.2160    3.6030    2.2870 C   0  0  0  0  0  0  0  0  0  0  0  0
   10.1720    2.2360    2.5820 C   0  0  0  0  0  3  0  0  0  0  0  0
    9.9300    4.1510    0.6600 S   0  0  0  0  0  0  0  0  0  0  0  0
   11.0950    3.7570   -0.0990 O   0  0  0  0  0  0  0  0  0  0  0  0
    8.6150    3.6690    0.2990 O   0  0  0  0  0  0  0  0  0  0  0  0
    9.8830    5.7400    0.7590 N   0  0  0  0  0  0  0  0  0  0  0  0
   10.0890    6.4290    1.8490 C   0  0  2  0  0  3  0  0  0  0  0  0
   10.3990    5.8970    3.0190 N   0  0  0  0  0  0  0  0  0  0  0  0
    9.6660    6.2460   -0.0910 H   0  0  0  0  0  0  0  0  0  0  0  0
   10.5530    6.5450    3.8070 H   0  0  0  0  0  0  0  0  0  0  0  0
    9.9120    7.9380    1.7640 C   0  0  0  0  0  0  0  0  0  0  0  0
   10.3760    8.8010    2.6870 C   0  0  0  0  0  0  0  0  0  0  0  0
   10.2090   10.2620    2.5430 C   0  0  0  0  0  0  0  0  0  0  0  0
   10.4780   11.1690    3.5830 C   0  0  0  0  0  3  0  0  0  0  0  0
   10.3720   12.5460    3.3760 C   0  0  0  0  0  3  0  0  0  0  0  0
    9.9850   13.0370    2.1360 C   0  0  0  0  0  3  0  0  0  0  0  0
    9.6750   12.1510    1.1060 C   0  0  0  0  0  3  0  0  0  0  0  0
    9.7660   10.7640    1.3050 C   0  0  0  0  0  0  0  0  0  0  0  0
    9.3680    9.8450    0.2970 N   0  0  0  0  0  0  0  0  0  0  0  0
    9.2550    8.4830    0.5370 C   0  0  0  0  0  0  0  0  0  0  0  0
    8.7150    7.6820   -0.2340 O   0  0  0  0  0  0  0  0  0  0  0  0
   11.0940    8.3260    3.7790 O   0  0  0  0  0  0  0  0  0  0  0  0
   11.6090    9.0630    4.1680 H   0  0  0  0  0  0  0  0  0  0  0  0
    8.9690   10.3490   -0.9710 N   0  0  0  0  0  0  0  0  0  0  0  0
    8.2940    9.6900   -1.3680 H   0  0  0  0  0  0  0  0  0  0  0  0
   10.1240   10.5750   -1.8500 C   0  0  0  0  0  3  0  0  0  0  0  0
   10.0900    9.5370   -2.9960 C   0  0  0  0  0  2  0  0  0  0  0  0
   10.4990   10.6980   -3.9320 C   0  0  0  0  0  2  0  0  0  0  0  0
    9.8100   11.6440   -2.9220 C   0  0  0  0  0  2  0  0  0  0  0  0
   10.3020    0.4330    4.1830 N   0  0  0  0  0  0  0  0  0  0  0  0
   11.0480   -0.1330    3.7710 H   0  0  0  0  0  0  0  0  0  0  0  0
   10.2420    0.0160    5.8230 S   0  0  0  0  0  0  0  0  0  0  0  0
    8.8670   -0.2040    6.1940 O   0  0  0  0  0  0  0  0  0  0  0  0
   11.0950    0.9390    6.5270 O   0  0  0  0  0  0  0  0  0  0  0  0
   10.7320   -2.3460    6.9120 C   0  0  0  0  0  1  0  0  0  0  0  0
   11.0450   -1.4610    5.7730 N   0  0  0  0  0  0  0  0  0  0  0  0
   12.0460   -1.2560    5.7420 H   0  0  0  0  0  0  0  0  0  0  0  0
  1 34  1  0  0  0  0
  1  2  1  0  0  0  0
  3  2  2  0  0  0  0
  4  3  1  0  0  0  0
  5  6  1  0  0  0  0
  5  4  2  0  0  0  0
  6  1  2  0  0  0  0
  7 10  1  0  0  0  0
  7  5  1  0  0  0  0
  8  7  2  0  0  0  0
  9  7  2  0  0  0  0
 10 11  1  0  0  0  0
 11 15  1  1  0  0  0
 11 12  1  0  0  0  0
 12  4  1  0  0  0  0
 12 14  1  0  0  0  0
 13 10  1  0  0  0  0
 15 16  2  0  0  0  0
 16 26  1  0  0  0  0
 17 16  1  0  0  0  0
 17 18  1  0  0  0  0
 19 18  2  0  0  0  0
 20 19  1  0  0  0  0
 21 22  1  0  0  0  0
 21 20  2  0  0  0  0
 22 17  2  0  0  0  0
 23 24  1  0  0  0  0
 23 22  1  0  0  0  0
 24 15  1  0  0  0  0
 25 24  2  0  0  0  0
 26 27  1  0  0  0  0
 28 23  1  0  0  0  0
 29 28  1  0  0  0  0
 30 28  1  0  0  0  0
 31 30  1  0  0  0  0
 32 31  1  0  0  0  0
 32 33  1  0  0  0  0
 33 30  1  0  0  0  0
 34 36  1  0  0  0  0
 35 34  1  0  0  0  0
 36 37  2  0  0  0  0
 36 38  2  0  0  0  0
 40 36  1  0  0  0  0
 40 39  1  0  0  0  0
 41 40  1  0  0  0  0
M  END
>  <minimizedAffinity>
-6.39980745

$$$$

 OpenBabel09122217463D

 41 45  0  0  1  0  0  0  0  0999 V2000
   10.6380    3.7220    4.1730 C   0  0  0  0  0  0  0  0  0  0  0  0
   11.0390    4.9660    4.6550 C   0  0  0  0  0  3  0  0  0  0  0  0
   11.0420    6.0770    3.8040 C   0  0  0  0  0  3  0  0  0  0  0  0
   10.6730    5.9530    2.4590 C   0  0  0  0  0  0  0  0  0  0  0  0
   10.3550    4.6900    1.9940 C   0  0  0  0  0  0  0  0  0  0  0  0
   10.3160    3.5690    2.8300 C   0  0  0  0  0  3  0  0  0  0  0  0
    9.9800    4.5280    0.3030 S   0  0  0  0  0  0  0  0  0  0  0  0
   11.0950    3.8180   -0.2820 O   0  0  0  0  0  0  0  0  0  0  0  0
    8.6420    3.9830    0.2390 O   0  0  0  0  0  0  0  0  0  0  0  0
    9.9540    6.0170   -0.2630 N   0  0  0  0  0  0  0  0  0  0  0  0
   10.2300    7.0870    0.4340 C   0  0  0  0  0  0  0  0  0  0  0  0
   10.6020    7.0750    1.7030 N   0  0  0  0  0  0  0  0  0  0  0  0
    9.6920    6.1340   -1.2340 H   0  0  0  0  0  0  0  0  0  0  0  0
   10.8090    7.9840    2.1430 H   0  0  0  0  0  0  0  0  0  0  0  0
   10.0620    8.4310   -0.2590 C   0  0  0  0  0  0  0  0  0  0  0  0
   10.2670    9.6170    0.3450 C   0  0  2  0  0  3  0  0  0  0  0  0
   10.1250   10.8960   -0.3800 C   0  0  0  0  0  0  0  0  0  0  0  0
   10.1120   12.1450    0.2670 C   0  0  0  0  0  3  0  0  0  0  0  0
   10.0450   13.3300   -0.4690 C   0  0  0  0  0  3  0  0  0  0  0  0
    9.9780   13.2880   -1.8550 C   0  0  0  0  0  3  0  0  0  0  0  0
    9.9490   12.0580   -2.5100 C   0  0  0  0  0  3  0  0  0  0  0  0
   10.0030   10.8590   -1.7820 C   0  0  0  0  0  0  0  0  0  0  0  0
    9.8830    9.5970   -2.4250 N   0  0  0  0  0  0  0  0  0  0  0  0
    9.7300    8.4150   -1.7160 C   0  0  0  0  0  0  0  0  0  0  0  0
    9.4110    7.3340   -2.2240 O   0  0  0  0  0  0  0  0  0  0  0  0
   10.6920    9.6550    1.6680 O   0  0  0  0  0  0  0  0  0  0  0  0
   11.0830   10.5330    1.8530 H   0  0  0  0  0  0  0  0  0  0  0  0
    9.8120    9.5560   -3.8440 N   0  0  0  0  0  0  0  0  0  0  0  0
   10.2810   10.3920   -4.2030 H   0  0  0  0  0  0  0  0  0  0  0  0
    8.4260    9.4390   -4.3120 C   0  0  0  0  0  3  0  0  0  0  0  0
    8.1780   10.5010   -5.4100 C   0  0  0  0  0  2  0  0  0  0  0  0
    7.4050    9.3980   -6.1700 C   0  0  0  0  0  2  0  0  0  0  0  0
    8.2990    8.3780   -5.4300 C   0  0  0  0  0  2  0  0  0  0  0  0
   10.5230    2.5830    5.0250 N   0  0  0  0  0  0  0  0  0  0  0  0
   11.4270    2.2220    5.3380 H   0  0  0  0  0  0  0  0  0  0  0  0
    9.5830    2.7780    6.4200 S   0  0  0  0  0  0  0  0  0  0  0  0
    8.4270    3.5740    6.0910 O   0  0  0  0  0  0  0  0  0  0  0  0
   10.4800    3.1250    7.4920 O   0  0  0  0  0  0  0  0  0  0  0  0
    8.8030    0.8670    8.0780 C   0  0  0  0  0  1  0  0  0  0  0  0
    9.1050    1.1850    6.6680 N   0  0  0  0  0  0  0  0  0  0  0  0
    9.8600    0.5890    6.3200 H   0  0  0  0  0  0  0  0  0  0  0  0
  1  2  1  0  0  0  0
  1 34  1  0  0  0  0
  3  2  2  0  0  0  0
  4  3  1  0  0  0  0
  5  4  2  0  0  0  0
  5  6  1  0  0  0  0
  6  1  2  0  0  0  0
  7  5  1  0  0  0  0
  8  7  2  0  0  0  0
  9  7  2  0  0  0  0
 10  7  1  0  0  0  0
 10 11  1  0  0  0  0
 11 12  1  0  0  0  0
 12 14  1  0  0  0  0
 12  4  1  0  0  0  0
 13 10  1  0  0  0  0
 15 16  1  0  0  0  0
 15 11  2  0  0  0  0
 16 26  1  6  0  0  0
 17 18  1  0  0  0  0
 17 16  1  0  0  0  0
 19 18  2  0  0  0  0
 20 19  1  0  0  0  0
 21 20  2  0  0  0  0
 21 22  1  0  0  0  0
 22 17  2  0  0  0  0
 23 22  1  0  0  0  0
 23 24  1  0  0  0  0
 24 15  1  0  0  0  0
 25 24  2  0  0  0  0
 26 27  1  0  0  0  0
 28 23  1  0  0  0  0
 29 28  1  0  0  0  0
 30 28  1  0  0  0  0
 31 30  1  0  0  0  0
 32 33  1  0  0  0  0
 32 31  1  0  0  0  0
 33 30  1  0  0  0  0
 34 35  1  0  0  0  0
 34 36  1  0  0  0  0
 36 40  1  0  0  0  0
 36 38  2  0  0  0  0
 37 36  2  0  0  0  0
 40 39  1  0  0  0  0
 41 40  1  0  0  0  0
M  END
>  <minimizedAffinity>
-6.32612991

$$$$

 OpenBabel09122217463D

 41 45  0  0  1  0  0  0  0  0999 V2000
   10.5050    1.8070    3.6220 C   0  0  0  0  0  0  0  0  0  0  0  0
   10.9610    2.7630    4.5270 C   0  0  0  0  0  3  0  0  0  0  0  0
   11.0500    4.1060    4.1410 C   0  0  0  0  0  3  0  0  0  0  0  0
   10.7140    4.5030    2.8420 C   0  0  0  0  0  0  0  0  0  0  0  0
   10.3400    3.5190    1.9460 C   0  0  0  0  0  0  0  0  0  0  0  0
   10.2140    2.1750    2.3140 C   0  0  0  0  0  3  0  0  0  0  0  0
   10.0040    4.0070    0.3100 S   0  0  0  0  0  0  0  0  0  0  0  0
   11.0940    3.4910   -0.4870 O   0  0  0  0  0  0  0  0  0  0  0  0
    8.6410    3.6080    0.0420 O   0  0  0  0  0  0  0  0  0  0  0  0
   10.0770    5.5990    0.3270 N   0  0  0  0  0  0  0  0  0  0  0  0
   10.3930    6.3220    1.3680 C   0  0  2  0  0  3  0  0  0  0  0  0
   10.7270    5.8250    2.5470 N   0  0  0  0  0  0  0  0  0  0  0  0
    9.8510    6.0780   -0.5360 H   0  0  0  0  0  0  0  0  0  0  0  0
   10.9720    6.4970    3.2900 H   0  0  0  0  0  0  0  0  0  0  0  0
   10.3200    7.8340    1.2130 C   0  0  0  0  0  0  0  0  0  0  0  0
   10.2890    8.4660    0.0250 C   0  0  0  0  0  0  0  0  0  0  0  0
   10.1840    9.9360   -0.0740 C   0  0  0  0  0  0  0  0  0  0  0  0
   10.3720   10.6370   -1.2780 C   0  0  0  0  0  3  0  0  0  0  0  0
   10.1940   12.0210   -1.3360 C   0  0  0  0  0  3  0  0  0  0  0  0
    9.8380   12.7260   -0.1930 C   0  0  0  0  0  3  0  0  0  0  0  0
    9.6870   12.0530    1.0180 C   0  0  0  0  0  3  0  0  0  0  0  0
    9.8750   10.6630    1.0910 C   0  0  0  0  0  0  0  0  0  0  0  0
    9.8150    9.9730    2.3320 N   0  0  0  0  0  0  0  0  0  0  0  0
   10.1960    8.6450    2.4620 C   0  0  0  0  0  0  0  0  0  0  0  0
   10.3620    8.0720    3.5440 O   0  0  0  0  0  0  0  0  0  0  0  0
   10.2850    7.7260   -1.1520 O   0  0  0  0  0  0  0  0  0  0  0  0
    9.9540    8.2880   -1.8820 H   0  0  0  0  0  0  0  0  0  0  0  0
    9.4530   10.6960    3.5010 N   0  0  0  0  0  0  0  0  0  0  0  0
    8.8720   11.4870    3.2090 H   0  0  0  0  0  0  0  0  0  0  0  0
   10.6350   11.1150    4.2660 C   0  0  0  0  0  3  0  0  0  0  0  0
   10.6910   12.6600    4.2930 C   0  0  0  0  0  2  0  0  0  0  0  0
   11.0950   12.5250    5.7800 C   0  0  0  0  0  2  0  0  0  0  0  0
   10.3270   11.1830    5.7790 C   0  0  0  0  0  2  0  0  0  0  0  0
   10.3020    0.4460    3.9990 N   0  0  0  0  0  0  0  0  0  0  0  0
   11.0980   -0.1560    3.7740 H   0  0  0  0  0  0  0  0  0  0  0  0
    9.9370    0.1610    5.6270 S   0  0  0  0  0  0  0  0  0  0  0  0
    9.3290    1.3460    6.1780 O   0  0  0  0  0  0  0  0  0  0  0  0
   11.0920   -0.4620    6.2190 O   0  0  0  0  0  0  0  0  0  0  0  0
    8.4660   -1.7590    6.7030 C   0  0  0  0  0  1  0  0  0  0  0  0
    8.7640   -1.0320    5.4530 N   0  0  0  0  0  0  0  0  0  0  0  0
    9.0980   -1.6770    4.7330 H   0  0  0  0  0  0  0  0  0  0  0  0
  1 34  1  0  0  0  0
  1  2  1  0  0  0  0
  3  2  2  0  0  0  0
  4  3  1  0  0  0  0
  5  6  1  0  0  0  0
  5  4  2  0  0  0  0
  6  1  2  0  0  0  0
  7 10  1  0  0  0  0
  7  5  1  0  0  0  0
  8  7  2  0  0  0  0
  9  7  2  0  0  0  0
 10 11  1  0  0  0  0
 11 15  1  1  0  0  0
 11 12  1  0  0  0  0
 12  4  1  0  0  0  0
 12 14  1  0  0  0  0
 13 10  1  0  0  0  0
 15 24  1  0  0  0  0
 16 15  2  0  0  0  0
 17 16  1  0  0  0  0
 17 22  1  0  0  0  0
 18 17  2  0  0  0  0
 19 18  1  0  0  0  0
 19 20  2  0  0  0  0
 20 21  1  0  0  0  0
 21 22  2  0  0  0  0
 22 23  1  0  0  0  0
 23 24  1  0  0  0  0
 23 28  1  0  0  0  0
 24 25  2  0  0  0  0
 26 16  1  0  0  0  0
 27 26  1  0  0  0  0
 28 30  1  0  0  0  0
 29 28  1  0  0  0  0
 30 31  1  0  0  0  0
 30 33  1  0  0  0  0
 31 32  1  0  0  0  0
 33 32  1  0  0  0  0
 34 36  1  0  0  0  0
 35 34  1  0  0  0  0
 36 37  2  0  0  0  0
 36 38  2  0  0  0  0
 40 36  1  0  0  0  0
 40 39  1  0  0  0  0
 41 40  1  0  0  0  0
M  END
>  <minimizedAffinity>
-6.24571609

$$$$

 OpenBabel09122217463D

 41 45  0  0  1  0  0  0  0  0999 V2000
   10.6350    3.8100    2.3260 C   0  0  0  0  0  0  0  0  0  0  0  0
   10.3770    3.3830    1.0260 C   0  0  0  0  0  3  0  0  0  0  0  0
   10.0240    4.3130    0.0410 C   0  0  0  0  0  3  0  0  0  0  0  0
    9.8980    5.6720    0.3490 C   0  0  0  0  0  0  0  0  0  0  0  0
   10.0850    6.0520    1.6660 C   0  0  0  0  0  0  0  0  0  0  0  0
   10.4660    5.1480    2.6630 C   0  0  0  0  0  3  0  0  0  0  0  0
    9.8440    7.7300    2.0600 S   0  0  0  0  0  0  0  0  0  0  0  0
    8.6260    7.7810    2.8370 O   0  0  0  0  0  0  0  0  0  0  0  0
   11.0940    8.1960    2.6160 O   0  0  0  0  0  0  0  0  0  0  0  0
    9.6030    8.4550    0.6620 N   0  0  0  0  0  0  0  0  0  0  0  0
    9.5450    7.8510   -0.4950 C   0  0  2  0  0  3  0  0  0  0  0  0
    9.6470    6.5430   -0.6580 N   0  0  0  0  0  0  0  0  0  0  0  0
    9.4980    9.4620    0.6800 H   0  0  0  0  0  0  0  0  0  0  0  0
    9.5700    6.1790   -1.6200 H   0  0  0  0  0  0  0  0  0  0  0  0
    9.3980    8.7250   -1.7310 C   0  0  0  0  0  0  0  0  0  0  0  0
    8.7240    8.3550   -2.8360 C   0  0  0  0  0  0  0  0  0  0  0  0
    8.5790    9.2540   -3.9990 C   0  0  0  0  0  0  0  0  0  0  0  0
    8.0810    8.8230   -5.2420 C   0  0  0  0  0  3  0  0  0  0  0  0
    7.8970    9.7260   -6.2910 C   0  0  0  0  0  3  0  0  0  0  0  0
    8.2190   11.0670   -6.1210 C   0  0  0  0  0  3  0  0  0  0  0  0
    8.7520   11.5030   -4.9100 C   0  0  0  0  0  3  0  0  0  0  0  0
    8.9520   10.6030   -3.8510 C   0  0  0  0  0  0  0  0  0  0  0  0
    9.5780   11.0110   -2.6420 N   0  0  0  0  0  0  0  0  0  0  0  0
    9.9710   10.1040   -1.6670 C   0  0  0  0  0  0  0  0  0  0  0  0
   10.7000   10.3840   -0.7100 O   0  0  0  0  0  0  0  0  0  0  0  0
    8.0810    7.1230   -2.8730 O   0  0  0  0  0  0  0  0  0  0  0  0
    7.4060    7.1360   -3.5820 H   0  0  0  0  0  0  0  0  0  0  0  0
    9.9090   12.3820   -2.4710 N   0  0  0  0  0  0  0  0  0  0  0  0
   10.8980   12.4330   -2.2110 H   0  0  0  0  0  0  0  0  0  0  0  0
    9.0320   13.0310   -1.4880 C   0  0  0  0  0  3  0  0  0  0  0  0
    8.8170   14.5050   -1.9060 C   0  0  0  0  0  2  0  0  0  0  0  0
    7.3370   14.3030   -1.5100 C   0  0  0  0  0  2  0  0  0  0  0  0
    7.5410   12.8050   -1.8320 C   0  0  0  0  0  2  0  0  0  0  0  0
   11.0950    2.9160    3.3380 N   0  0  0  0  0  0  0  0  0  0  0  0
   11.6550    3.3780    4.0590 H   0  0  0  0  0  0  0  0  0  0  0  0
    9.9070    2.0300    4.1570 S   0  0  0  0  0  0  0  0  0  0  0  0
    9.1580    1.2620    3.1950 O   0  0  0  0  0  0  0  0  0  0  0  0
    9.2760    2.9270    5.0900 O   0  0  0  0  0  0  0  0  0  0  0  0
   10.3760   -0.3890    5.1250 C   0  0  0  0  0  1  0  0  0  0  0  0
   10.8870    0.9940    5.0500 N   0  0  0  0  0  0  0  0  0  0  0  0
   10.9720    1.3970    5.9860 H   0  0  0  0  0  0  0  0  0  0  0  0
  1  6  1  0  0  0  0
  1 34  1  0  0  0  0
  2  1  2  0  0  0  0
  3  4  2  0  0  0  0
  3  2  1  0  0  0  0
  4  5  1  0  0  0  0
  5  7  1  0  0  0  0
  5  6  2  0  0  0  0
  7  9  2  0  0  0  0
  7  8  2  0  0  0  0
 10 13  1  0  0  0  0
 10  7  1  0  0  0  0
 11 15  1  6  0  0  0
 11 10  1  0  0  0  0
 12 11  1  0  0  0  0
 12  4  1  0  0  0  0
 14 12  1  0  0  0  0
 15 24  1  0  0  0  0
 16 15  2  0  0  0  0
 17 22  1  0  0  0  0
 17 16  1  0  0  0  0
 18 17  2  0  0  0  0
 19 20  2  0  0  0  0
 19 18  1  0  0  0  0
 20 21  1  0  0  0  0
 21 22  2  0  0  0  0
 22 23  1  0  0  0  0
 23 28  1  0  0  0  0
 23 24  1  0  0  0  0
 24 25  2  0  0  0  0
 26 16  1  0  0  0  0
 27 26  1  0  0  0  0
 28 29  1  0  0  0  0
 28 30  1  0  0  0  0
 31 32  1  0  0  0  0
 31 30  1  0  0  0  0
 33 32  1  0  0  0  0
 33 30  1  0  0  0  0
 34 35  1  0  0  0  0
 34 36  1  0  0  0  0
 36 40  1  0  0  0  0
 36 38  2  0  0  0  0
 37 36  2  0  0  0  0
 40 39  1  0  0  0  0
 40 41  1  0  0  0  0
M  END
>  <minimizedAffinity>
-5.97501755

$$$$

 OpenBabel09122217463D

 41 45  0  0  1  0  0  0  0  0999 V2000
   10.5290    0.5680    5.3810 C   0  0  0  0  0  0  0  0  0  0  0  0
   11.0150    1.6720    6.0780 C   0  0  0  0  0  3  0  0  0  0  0  0
   11.0940    2.9180    5.4470 C   0  0  0  0  0  3  0  0  0  0  0  0
   10.7160    3.0700    4.1070 C   0  0  0  0  0  0  0  0  0  0  0  0
   10.3120    1.9390    3.4220 C   0  0  0  0  0  0  0  0  0  0  0  0
   10.1960    0.6880    4.0370 C   0  0  0  0  0  3  0  0  0  0  0  0
    9.9240    2.1170    1.7350 S   0  0  0  0  0  0  0  0  0  0  0  0
   10.9870    1.4530    1.0140 O   0  0  0  0  0  0  0  0  0  0  0  0
    8.5520    1.6860    1.5900 O   0  0  0  0  0  0  0  0  0  0  0  0
   10.0010    3.6830    1.4540 N   0  0  0  0  0  0  0  0  0  0  0  0
   10.3510    4.5850    2.3320 C   0  0  2  0  0  3  0  0  0  0  0  0
   10.7230    4.3140    3.5710 N   0  0  0  0  0  0  0  0  0  0  0  0
    9.7470    3.9950    0.5250 H   0  0  0  0  0  0  0  0  0  0  0  0
   10.9920    5.1100    4.1680 H   0  0  0  0  0  0  0  0  0  0  0  0
   10.2760    6.0430    1.9010 C   0  0  0  0  0  0  0  0  0  0  0  0
   10.1460    7.0730    2.7570 C   0  0  0  0  0  0  0  0  0  0  0  0
   10.1120    8.4740    2.2930 C   0  0  0  0  0  0  0  0  0  0  0  0
    9.7560    9.5490    3.1270 C   0  0  0  0  0  3  0  0  0  0  0  0
    9.8060   10.8640    2.6610 C   0  0  0  0  0  3  0  0  0  0  0  0
   10.2000   11.1260    1.3550 C   0  0  0  0  0  3  0  0  0  0  0  0
   10.5170   10.0700    0.5020 C   0  0  0  0  0  3  0  0  0  0  0  0
   10.4590    8.7430    0.9560 C   0  0  0  0  0  0  0  0  0  0  0  0
   10.6900    7.6500    0.0760 N   0  0  0  0  0  0  0  0  0  0  0  0
   10.4410    6.3360    0.4450 C   0  0  0  0  0  0  0  0  0  0  0  0
   10.4220    5.3840   -0.3430 O   0  0  0  0  0  0  0  0  0  0  0  0
   10.1090    6.8330    4.1260 O   0  0  0  0  0  0  0  0  0  0  0  0
   10.3220    7.6620    4.6020 H   0  0  0  0  0  0  0  0  0  0  0  0
   11.0900    7.9200   -1.2600 N   0  0  0  0  0  0  0  0  0  0  0  0
   12.0410    8.2990   -1.2290 H   0  0  0  0  0  0  0  0  0  0  0  0
   10.1450    8.8150   -1.9380 C   0  0  0  0  0  3  0  0  0  0  0  0
   10.7540    9.2550   -3.2900 C   0  0  0  0  0  2  0  0  0  0  0  0
    9.3420    9.0520   -3.8850 C   0  0  0  0  0  2  0  0  0  0  0  0
    9.1090    8.0160   -2.7620 C   0  0  0  0  0  2  0  0  0  0  0  0
   10.3360   -0.6980    6.0110 N   0  0  0  0  0  0  0  0  0  0  0  0
   11.0550   -0.9160    6.7050 H   0  0  0  0  0  0  0  0  0  0  0  0
    8.8470   -0.9380    6.7810 S   0  0  0  0  0  0  0  0  0  0  0  0
    8.2860    0.3480    7.1120 O   0  0  0  0  0  0  0  0  0  0  0  0
    9.0380   -1.9730    7.7630 O   0  0  0  0  0  0  0  0  0  0  0  0
    8.5090   -2.9060    5.0440 C   0  0  0  0  0  1  0  0  0  0  0  0
    7.9740   -1.6120    5.5120 N   0  0  0  0  0  0  0  0  0  0  0  0
    7.9730   -0.9280    4.7520 H   0  0  0  0  0  0  0  0  0  0  0  0
  1 34  1  0  0  0  0
  1  2  1  0  0  0  0
  3  2  2  0  0  0  0
  4  3  1  0  0  0  0
  5  6  1  0  0  0  0
  5  4  2  0  0  0  0
  6  1  2  0  0  0  0
  7  5  1  0  0  0  0
  8  7  2  0  0  0  0
  9  7  2  0  0  0  0
 10  7  1  0  0  0  0
 10 11  1  0  0  0  0
 11 15  1  1  0  0  0
 11 12  1  0  0  0  0
 12  4  1  0  0  0  0
 12 14  1  0  0  0  0
 13 10  1  0  0  0  0
 15 16  2  0  0  0  0
 16 26  1  0  0  0  0
 17 16  1  0  0  0  0
 17 18  1  0  0  0  0
 19 18  2  0  0  0  0
 20 19  1  0  0  0  0
 21 22  1  0  0  0  0
 21 20  2  0  0  0  0
 22 17  2  0  0  0  0
 23 24  1  0  0  0  0
 23 22  1  0  0  0  0
 24 15  1  0  0  0  0
 25 24  2  0  0  0  0
 26 27  1  0  0  0  0
 28 29  1  0  0  0  0
 28 23  1  0  0  0  0
 30 28  1  0  0  0  0
 31 30  1  0  0  0  0
 32 31  1  0  0  0  0
 32 33  1  0  0  0  0
 33 30  1  0  0  0  0
 34 35  1  0  0  0  0
 34 36  1  0  0  0  0
 36 37  2  0  0  0  0
 36 38  2  0  0  0  0
 39 40  1  0  0  0  0
 40 36  1  0  0  0  0
 41 40  1  0  0  0  0
M  END
>  <minimizedAffinity>
-4.52626419

$$$$
