
 OpenBabel09122222393D

 41 45  0  0  1  0  0  0  0  0999 V2000
   10.2340   11.3180   -2.0600 C   0  0  0  0  0  0  0  0  0  0  0  0
   10.6590   10.1560   -2.7020 C   0  0  0  0  0  3  0  0  0  0  0  0
   10.7630    8.9590   -1.9840 C   0  0  0  0  0  3  0  0  0  0  0  0
   10.4720    8.9150   -0.6150 C   0  0  0  0  0  0  0  0  0  0  0  0
   10.1280   10.1010    0.0070 C   0  0  0  0  0  0  0  0  0  0  0  0
    9.9880   11.3040   -0.6920 C   0  0  0  0  0  3  0  0  0  0  0  0
    9.8500   10.0560    1.7240 S   0  0  0  0  0  0  0  0  0  0  0  0
   10.9660   10.7520    2.3230 O   0  0  0  0  0  0  0  0  0  0  0  0
    8.4960   10.5210    1.9250 O   0  0  0  0  0  0  0  0  0  0  0  0
    9.9240    8.5140    2.1180 N   0  0  0  0  0  0  0  0  0  0  0  0
   10.2040    7.5430    1.2900 C   0  0  2  0  0  3  0  0  0  0  0  0
   10.4970    7.7140    0.0120 N   0  0  0  0  0  0  0  0  0  0  0  0
    9.7280    8.2770    3.0820 H   0  0  0  0  0  0  0  0  0  0  0  0
   10.7160    6.8710   -0.5400 H   0  0  0  0  0  0  0  0  0  0  0  0
   10.1390    6.1230    1.8340 C   0  0  0  0  0  0  0  0  0  0  0  0
    9.9610    5.0330    1.0650 C   0  0  0  0  0  0  0  0  0  0  0  0
    9.9380    3.6710    1.6360 C   0  0  0  0  0  0  0  0  0  0  0  0
    9.5360    2.5400    0.9040 C   0  0  0  0  0  3  0  0  0  0  0  0
    9.5980    1.2630    1.4660 C   0  0  0  0  0  3  0  0  0  0  0  0
   10.0510    1.0970    2.7690 C   0  0  0  0  0  3  0  0  0  0  0  0
   10.4150    2.2110    3.5230 C   0  0  0  0  0  3  0  0  0  0  0  0
   10.3450    3.5010    2.9730 C   0  0  0  0  0  0  0  0  0  0  0  0
   10.6260    4.6540    3.7550 N   0  0  0  0  0  0  0  0  0  0  0  0
   10.3690    5.9400    3.2990 C   0  0  0  0  0  0  0  0  0  0  0  0
   10.3950    6.9490    4.0120 O   0  0  0  0  0  0  0  0  0  0  0  0
    9.8620    5.1680   -0.3150 O   0  0  0  0  0  0  0  0  0  0  0  0
   10.0470    4.3030   -0.7350 H   0  0  0  0  0  0  0  0  0  0  0  0
   11.0860    4.4830    5.0880 N   0  0  0  0  0  0  0  0  0  0  0  0
   11.6740    3.6450    5.1080 H   0  0  0  0  0  0  0  0  0  0  0  0
    9.9710    4.4160    6.0410 C   0  0  0  0  0  3  0  0  0  0  0  0
   10.0430    3.0710    6.8010 C   0  0  0  0  0  2  0  0  0  0  0  0
    9.6830    3.8770    8.0700 C   0  0  0  0  0  2  0  0  0  0  0  0
   10.3370    5.0950    7.3800 C   0  0  0  0  0  2  0  0  0  0  0  0
   10.0160   12.5360   -2.7700 N   0  0  0  0  0  0  0  0  0  0  0  0
   10.8090   12.8060   -3.3580 H   0  0  0  0  0  0  0  0  0  0  0  0
    8.6470   12.5950   -3.7650 S   0  0  0  0  0  0  0  0  0  0  0  0
    8.6950   13.8050   -4.5450 O   0  0  0  0  0  0  0  0  0  0  0  0
    7.5130   12.2460   -2.9490 O   0  0  0  0  0  0  0  0  0  0  0  0
    7.7630   10.7420   -5.4350 C   0  0  0  0  0  1  0  0  0  0  0  0
    8.9630   11.2790   -4.7640 N   0  0  0  0  0  0  0  0  0  0  0  0
    9.4010   10.5610   -4.1830 H   0  0  0  0  0  0  0  0  0  0  0  0
  1  6  1  0  0  0  0
  2  1  2  0  0  0  0
  2  3  1  0  0  0  0
  3  4  2  0  0  0  0
  4  5  1  0  0  0  0
  4 12  1  0  0  0  0
  5  7  1  0  0  0  0
  6  5  2  0  0  0  0
  7  9  2  0  0  0  0
  7 10  1  0  0  0  0
  7  8  2  0  0  0  0
 10 13  1  0  0  0  0
 11 15  1  6  0  0  0
 11 10  1  0  0  0  0
 12 11  1  0  0  0  0
 14 12  1  0  0  0  0
 15 24  1  0  0  0  0
 16 17  1  0  0  0  0
 16 15  2  0  0  0  0
 17 22  1  0  0  0  0
 18 19  1  0  0  0  0
 18 17  2  0  0  0  0
 19 20  2  0  0  0  0
 20 21  1  0  0  0  0
 22 21  2  0  0  0  0
 22 23  1  0  0  0  0
 23 28  1  0  0  0  0
 24 23  1  0  0  0  0
 24 25  2  0  0  0  0
 26 16  1  0  0  0  0
 27 26  1  0  0  0  0
 28 29  1  0  0  0  0
 28 30  1  0  0  0  0
 30 31  1  0  0  0  0
 30 33  1  0  0  0  0
 31 32  1  0  0  0  0
 33 32  1  0  0  0  0
 34  1  1  0  0  0  0
 35 34  1  0  0  0  0
 36 38  2  0  0  0  0
 36 34  1  0  0  0  0
 37 36  2  0  0  0  0
 39 40  1  0  0  0  0
 40 41  1  0  0  0  0
 40 36  1  0  0  0  0
M  END
>  <minimizedAffinity>
-6.72268867

$$$$
