
 OpenBabel09122222393D

 41 45  0  0  1  0  0  0  0  0999 V2000
   10.7680    8.1070    1.7250 C   0  0  0  0  0  0  0  0  0  0  0  0
   10.7290    7.8780    3.0990 C   0  0  0  0  0  3  0  0  0  0  0  0
   10.5220    6.5830    3.5860 C   0  0  0  0  0  3  0  0  0  0  0  0
   10.3230    5.5090    2.7100 C   0  0  0  0  0  0  0  0  0  0  0  0
   10.2900    5.7830    1.3550 C   0  0  0  0  0  0  0  0  0  0  0  0
   10.5230    7.0630    0.8410 C   0  0  0  0  0  3  0  0  0  0  0  0
    9.9580    4.4590    0.2760 S   0  0  0  0  0  0  0  0  0  0  0  0
    8.6310    4.6980   -0.2450 O   0  0  0  0  0  0  0  0  0  0  0  0
   11.0950    4.3710   -0.6130 O   0  0  0  0  0  0  0  0  0  0  0  0
    9.9310    3.1630    1.2020 N   0  0  0  0  0  0  0  0  0  0  0  0
   10.0710    3.1690    2.5010 C   0  0  2  0  0  3  0  0  0  0  0  0
   10.2210    4.2620    3.2300 N   0  0  0  0  0  0  0  0  0  0  0  0
    9.8060    2.2710    0.7400 H   0  0  0  0  0  0  0  0  0  0  0  0
   10.3060    4.1410    4.2500 H   0  0  0  0  0  0  0  0  0  0  0  0
   10.1070    1.8200    3.2040 C   0  0  0  0  0  0  0  0  0  0  0  0
   10.5010    1.6480    4.4790 C   0  0  0  0  0  0  0  0  0  0  0  0
   10.4860    0.3220    5.1290 C   0  0  0  0  0  0  0  0  0  0  0  0
   11.0950    0.0710    6.3710 C   0  0  0  0  0  3  0  0  0  0  0  0
   10.9940   -1.1830    6.9780 C   0  0  0  0  0  3  0  0  0  0  0  0
   10.2970   -2.2070    6.3490 C   0  0  0  0  0  3  0  0  0  0  0  0
    9.7230   -1.9880    5.0980 C   0  0  0  0  0  3  0  0  0  0  0  0
    9.8270   -0.7350    4.4730 C   0  0  0  0  0  0  0  0  0  0  0  0
    9.3270   -0.5200    3.1600 N   0  0  0  0  0  0  0  0  0  0  0  0
    9.5950    0.6380    2.4450 C   0  0  0  0  0  0  0  0  0  0  0  0
    9.3660    0.7800    1.2390 O   0  0  0  0  0  0  0  0  0  0  0  0
   10.8700    2.7500    5.2430 O   0  0  0  0  0  0  0  0  0  0  0  0
   10.8250    2.5110    6.1910 H   0  0  0  0  0  0  0  0  0  0  0  0
    8.6160   -1.5700    2.5180 N   0  0  0  0  0  0  0  0  0  0  0  0
    8.0560   -2.0460    3.2290 H   0  0  0  0  0  0  0  0  0  0  0  0
    9.5230   -2.4800    1.8070 C   0  0  0  0  0  3  0  0  0  0  0  0
    8.8180   -3.8450    1.6250 C   0  0  0  0  0  2  0  0  0  0  0  0
    9.4080   -3.8530    0.1960 C   0  0  0  0  0  2  0  0  0  0  0  0
    9.4020   -2.3090    0.2750 C   0  0  0  0  0  2  0  0  0  0  0  0
   11.0750    9.3900    1.1810 N   0  0  0  0  0  0  0  0  0  0  0  0
   11.6090    9.3390    0.3090 H   0  0  0  0  0  0  0  0  0  0  0  0
    9.7620   10.4130    0.8740 S   0  0  0  0  0  0  0  0  0  0  0  0
    8.5990    9.8850    1.5420 O   0  0  0  0  0  0  0  0  0  0  0  0
    9.7750   10.7100   -0.5350 O   0  0  0  0  0  0  0  0  0  0  0  0
    9.3880   12.2180    2.7730 C   0  0  0  0  0  1  0  0  0  0  0  0
   10.2830   11.7960    1.6770 N   0  0  0  0  0  0  0  0  0  0  0  0
   10.3650   12.5350    0.9760 H   0  0  0  0  0  0  0  0  0  0  0  0
  1  2  1  0  0  0  0
  2  3  2  0  0  0  0
  4 12  1  0  0  0  0
  4  3  1  0  0  0  0
  5  4  2  0  0  0  0
  6  5  1  0  0  0  0
  6  1  2  0  0  0  0
  7 10  1  0  0  0  0
  7  5  1  0  0  0  0
  8  7  2  0  0  0  0
  9  7  2  0  0  0  0
 10 11  1  0  0  0  0
 11 15  1  6  0  0  0
 11 12  1  0  0  0  0
 12 14  1  0  0  0  0
 13 10  1  0  0  0  0
 15 16  2  0  0  0  0
 16 17  1  0  0  0  0
 16 26  1  0  0  0  0
 17 18  1  0  0  0  0
 18 19  2  0  0  0  0
 20 19  1  0  0  0  0
 21 20  2  0  0  0  0
 22 21  1  0  0  0  0
 22 17  2  0  0  0  0
 23 22  1  0  0  0  0
 24 23  1  0  0  0  0
 24 15  1  0  0  0  0
 25 24  2  0  0  0  0
 26 27  1  0  0  0  0
 28 23  1  0  0  0  0
 28 29  1  0  0  0  0
 30 28  1  0  0  0  0
 31 30  1  0  0  0  0
 32 33  1  0  0  0  0
 32 31  1  0  0  0  0
 33 30  1  0  0  0  0
 34  1  1  0  0  0  0
 35 34  1  0  0  0  0
 36 34  1  0  0  0  0
 36 37  2  0  0  0  0
 36 40  1  0  0  0  0
 38 36  2  0  0  0  0
 40 39  1  0  0  0  0
 41 40  1  0  0  0  0
M  END
>  <minimizedAffinity>
-6.90680885

$$$$
