
 OpenBabel09122222393D

 41 45  0  0  1  0  0  0  0  0999 V2000
   10.5050    1.8070    3.6220 C   0  0  0  0  0  0  0  0  0  0  0  0
   10.9610    2.7630    4.5270 C   0  0  0  0  0  3  0  0  0  0  0  0
   11.0500    4.1060    4.1410 C   0  0  0  0  0  3  0  0  0  0  0  0
   10.7140    4.5030    2.8420 C   0  0  0  0  0  0  0  0  0  0  0  0
   10.3400    3.5190    1.9460 C   0  0  0  0  0  0  0  0  0  0  0  0
   10.2140    2.1750    2.3140 C   0  0  0  0  0  3  0  0  0  0  0  0
   10.0040    4.0070    0.3100 S   0  0  0  0  0  0  0  0  0  0  0  0
   11.0940    3.4910   -0.4870 O   0  0  0  0  0  0  0  0  0  0  0  0
    8.6410    3.6080    0.0420 O   0  0  0  0  0  0  0  0  0  0  0  0
   10.0770    5.5990    0.3270 N   0  0  0  0  0  0  0  0  0  0  0  0
   10.3930    6.3220    1.3680 C   0  0  2  0  0  3  0  0  0  0  0  0
   10.7270    5.8250    2.5470 N   0  0  0  0  0  0  0  0  0  0  0  0
    9.8510    6.0780   -0.5360 H   0  0  0  0  0  0  0  0  0  0  0  0
   10.9720    6.4970    3.2900 H   0  0  0  0  0  0  0  0  0  0  0  0
   10.3200    7.8340    1.2130 C   0  0  0  0  0  0  0  0  0  0  0  0
   10.2890    8.4660    0.0250 C   0  0  0  0  0  0  0  0  0  0  0  0
   10.1840    9.9360   -0.0740 C   0  0  0  0  0  0  0  0  0  0  0  0
   10.3720   10.6370   -1.2780 C   0  0  0  0  0  3  0  0  0  0  0  0
   10.1940   12.0210   -1.3360 C   0  0  0  0  0  3  0  0  0  0  0  0
    9.8380   12.7260   -0.1930 C   0  0  0  0  0  3  0  0  0  0  0  0
    9.6870   12.0530    1.0180 C   0  0  0  0  0  3  0  0  0  0  0  0
    9.8750   10.6630    1.0910 C   0  0  0  0  0  0  0  0  0  0  0  0
    9.8150    9.9730    2.3320 N   0  0  0  0  0  0  0  0  0  0  0  0
   10.1960    8.6450    2.4620 C   0  0  0  0  0  0  0  0  0  0  0  0
   10.3620    8.0720    3.5440 O   0  0  0  0  0  0  0  0  0  0  0  0
   10.2850    7.7260   -1.1520 O   0  0  0  0  0  0  0  0  0  0  0  0
    9.9540    8.2880   -1.8820 H   0  0  0  0  0  0  0  0  0  0  0  0
    9.4530   10.6960    3.5010 N   0  0  0  0  0  0  0  0  0  0  0  0
    8.8720   11.4870    3.2090 H   0  0  0  0  0  0  0  0  0  0  0  0
   10.6350   11.1150    4.2660 C   0  0  0  0  0  3  0  0  0  0  0  0
   10.6910   12.6600    4.2930 C   0  0  0  0  0  2  0  0  0  0  0  0
   11.0950   12.5250    5.7800 C   0  0  0  0  0  2  0  0  0  0  0  0
   10.3270   11.1830    5.7790 C   0  0  0  0  0  2  0  0  0  0  0  0
   10.3020    0.4460    3.9990 N   0  0  0  0  0  0  0  0  0  0  0  0
   11.0980   -0.1560    3.7740 H   0  0  0  0  0  0  0  0  0  0  0  0
    9.9370    0.1610    5.6270 S   0  0  0  0  0  0  0  0  0  0  0  0
    9.3290    1.3460    6.1780 O   0  0  0  0  0  0  0  0  0  0  0  0
   11.0920   -0.4620    6.2190 O   0  0  0  0  0  0  0  0  0  0  0  0
    8.4660   -1.7590    6.7030 C   0  0  0  0  0  1  0  0  0  0  0  0
    8.7640   -1.0320    5.4530 N   0  0  0  0  0  0  0  0  0  0  0  0
    9.0980   -1.6770    4.7330 H   0  0  0  0  0  0  0  0  0  0  0  0
  1 34  1  0  0  0  0
  1  2  1  0  0  0  0
  3  2  2  0  0  0  0
  4  3  1  0  0  0  0
  5  6  1  0  0  0  0
  5  4  2  0  0  0  0
  6  1  2  0  0  0  0
  7 10  1  0  0  0  0
  7  5  1  0  0  0  0
  8  7  2  0  0  0  0
  9  7  2  0  0  0  0
 10 11  1  0  0  0  0
 11 15  1  1  0  0  0
 11 12  1  0  0  0  0
 12  4  1  0  0  0  0
 12 14  1  0  0  0  0
 13 10  1  0  0  0  0
 15 24  1  0  0  0  0
 16 15  2  0  0  0  0
 17 16  1  0  0  0  0
 17 22  1  0  0  0  0
 18 17  2  0  0  0  0
 19 18  1  0  0  0  0
 19 20  2  0  0  0  0
 20 21  1  0  0  0  0
 21 22  2  0  0  0  0
 22 23  1  0  0  0  0
 23 24  1  0  0  0  0
 23 28  1  0  0  0  0
 24 25  2  0  0  0  0
 26 16  1  0  0  0  0
 27 26  1  0  0  0  0
 28 30  1  0  0  0  0
 29 28  1  0  0  0  0
 30 31  1  0  0  0  0
 30 33  1  0  0  0  0
 31 32  1  0  0  0  0
 33 32  1  0  0  0  0
 34 36  1  0  0  0  0
 35 34  1  0  0  0  0
 36 37  2  0  0  0  0
 36 38  2  0  0  0  0
 40 36  1  0  0  0  0
 40 39  1  0  0  0  0
 41 40  1  0  0  0  0
M  END
>  <minimizedAffinity>
-6.24571609

$$$$
