
 OpenBabel09122222393D

 41 45  0  0  1  0  0  0  0  0999 V2000
   10.4220    1.8230    3.8850 C   0  0  0  0  0  0  0  0  0  0  0  0
   10.7570    2.7600    4.8590 C   0  0  0  0  0  3  0  0  0  0  0  0
   10.7660    4.1240    4.5440 C   0  0  0  0  0  3  0  0  0  0  0  0
   10.4690    4.5630    3.2490 C   0  0  0  0  0  0  0  0  0  0  0  0
   10.2160    3.6030    2.2870 C   0  0  0  0  0  0  0  0  0  0  0  0
   10.1720    2.2360    2.5820 C   0  0  0  0  0  3  0  0  0  0  0  0
    9.9300    4.1510    0.6600 S   0  0  0  0  0  0  0  0  0  0  0  0
   11.0950    3.7570   -0.0990 O   0  0  0  0  0  0  0  0  0  0  0  0
    8.6150    3.6690    0.2990 O   0  0  0  0  0  0  0  0  0  0  0  0
    9.8830    5.7400    0.7590 N   0  0  0  0  0  0  0  0  0  0  0  0
   10.0890    6.4290    1.8490 C   0  0  2  0  0  3  0  0  0  0  0  0
   10.3990    5.8970    3.0190 N   0  0  0  0  0  0  0  0  0  0  0  0
    9.6660    6.2460   -0.0910 H   0  0  0  0  0  0  0  0  0  0  0  0
   10.5530    6.5450    3.8070 H   0  0  0  0  0  0  0  0  0  0  0  0
    9.9120    7.9380    1.7640 C   0  0  0  0  0  0  0  0  0  0  0  0
   10.3760    8.8010    2.6870 C   0  0  0  0  0  0  0  0  0  0  0  0
   10.2090   10.2620    2.5430 C   0  0  0  0  0  0  0  0  0  0  0  0
   10.4780   11.1690    3.5830 C   0  0  0  0  0  3  0  0  0  0  0  0
   10.3720   12.5460    3.3760 C   0  0  0  0  0  3  0  0  0  0  0  0
    9.9850   13.0370    2.1360 C   0  0  0  0  0  3  0  0  0  0  0  0
    9.6750   12.1510    1.1060 C   0  0  0  0  0  3  0  0  0  0  0  0
    9.7660   10.7640    1.3050 C   0  0  0  0  0  0  0  0  0  0  0  0
    9.3680    9.8450    0.2970 N   0  0  0  0  0  0  0  0  0  0  0  0
    9.2550    8.4830    0.5370 C   0  0  0  0  0  0  0  0  0  0  0  0
    8.7150    7.6820   -0.2340 O   0  0  0  0  0  0  0  0  0  0  0  0
   11.0940    8.3260    3.7790 O   0  0  0  0  0  0  0  0  0  0  0  0
   11.6090    9.0630    4.1680 H   0  0  0  0  0  0  0  0  0  0  0  0
    8.9690   10.3490   -0.9710 N   0  0  0  0  0  0  0  0  0  0  0  0
    8.2940    9.6900   -1.3680 H   0  0  0  0  0  0  0  0  0  0  0  0
   10.1240   10.5750   -1.8500 C   0  0  0  0  0  3  0  0  0  0  0  0
   10.0900    9.5370   -2.9960 C   0  0  0  0  0  2  0  0  0  0  0  0
   10.4990   10.6980   -3.9320 C   0  0  0  0  0  2  0  0  0  0  0  0
    9.8100   11.6440   -2.9220 C   0  0  0  0  0  2  0  0  0  0  0  0
   10.3020    0.4330    4.1830 N   0  0  0  0  0  0  0  0  0  0  0  0
   11.0480   -0.1330    3.7710 H   0  0  0  0  0  0  0  0  0  0  0  0
   10.2420    0.0160    5.8230 S   0  0  0  0  0  0  0  0  0  0  0  0
    8.8670   -0.2040    6.1940 O   0  0  0  0  0  0  0  0  0  0  0  0
   11.0950    0.9390    6.5270 O   0  0  0  0  0  0  0  0  0  0  0  0
   10.7320   -2.3460    6.9120 C   0  0  0  0  0  1  0  0  0  0  0  0
   11.0450   -1.4610    5.7730 N   0  0  0  0  0  0  0  0  0  0  0  0
   12.0460   -1.2560    5.7420 H   0  0  0  0  0  0  0  0  0  0  0  0
  1 34  1  0  0  0  0
  1  2  1  0  0  0  0
  3  2  2  0  0  0  0
  4  3  1  0  0  0  0
  5  6  1  0  0  0  0
  5  4  2  0  0  0  0
  6  1  2  0  0  0  0
  7 10  1  0  0  0  0
  7  5  1  0  0  0  0
  8  7  2  0  0  0  0
  9  7  2  0  0  0  0
 10 11  1  0  0  0  0
 11 15  1  1  0  0  0
 11 12  1  0  0  0  0
 12  4  1  0  0  0  0
 12 14  1  0  0  0  0
 13 10  1  0  0  0  0
 15 16  2  0  0  0  0
 16 26  1  0  0  0  0
 17 16  1  0  0  0  0
 17 18  1  0  0  0  0
 19 18  2  0  0  0  0
 20 19  1  0  0  0  0
 21 22  1  0  0  0  0
 21 20  2  0  0  0  0
 22 17  2  0  0  0  0
 23 24  1  0  0  0  0
 23 22  1  0  0  0  0
 24 15  1  0  0  0  0
 25 24  2  0  0  0  0
 26 27  1  0  0  0  0
 28 23  1  0  0  0  0
 29 28  1  0  0  0  0
 30 28  1  0  0  0  0
 31 30  1  0  0  0  0
 32 31  1  0  0  0  0
 32 33  1  0  0  0  0
 33 30  1  0  0  0  0
 34 36  1  0  0  0  0
 35 34  1  0  0  0  0
 36 37  2  0  0  0  0
 36 38  2  0  0  0  0
 40 36  1  0  0  0  0
 40 39  1  0  0  0  0
 41 40  1  0  0  0  0
M  END
>  <minimizedAffinity>
-6.39980745

$$$$
