
 OpenBabel09122222393D

 41 45  0  0  1  0  0  0  0  0999 V2000
   10.5290    0.5680    5.3810 C   0  0  0  0  0  0  0  0  0  0  0  0
   11.0150    1.6720    6.0780 C   0  0  0  0  0  3  0  0  0  0  0  0
   11.0940    2.9180    5.4470 C   0  0  0  0  0  3  0  0  0  0  0  0
   10.7160    3.0700    4.1070 C   0  0  0  0  0  0  0  0  0  0  0  0
   10.3120    1.9390    3.4220 C   0  0  0  0  0  0  0  0  0  0  0  0
   10.1960    0.6880    4.0370 C   0  0  0  0  0  3  0  0  0  0  0  0
    9.9240    2.1170    1.7350 S   0  0  0  0  0  0  0  0  0  0  0  0
   10.9870    1.4530    1.0140 O   0  0  0  0  0  0  0  0  0  0  0  0
    8.5520    1.6860    1.5900 O   0  0  0  0  0  0  0  0  0  0  0  0
   10.0010    3.6830    1.4540 N   0  0  0  0  0  0  0  0  0  0  0  0
   10.3510    4.5850    2.3320 C   0  0  2  0  0  3  0  0  0  0  0  0
   10.7230    4.3140    3.5710 N   0  0  0  0  0  0  0  0  0  0  0  0
    9.7470    3.9950    0.5250 H   0  0  0  0  0  0  0  0  0  0  0  0
   10.9920    5.1100    4.1680 H   0  0  0  0  0  0  0  0  0  0  0  0
   10.2760    6.0430    1.9010 C   0  0  0  0  0  0  0  0  0  0  0  0
   10.1460    7.0730    2.7570 C   0  0  0  0  0  0  0  0  0  0  0  0
   10.1120    8.4740    2.2930 C   0  0  0  0  0  0  0  0  0  0  0  0
    9.7560    9.5490    3.1270 C   0  0  0  0  0  3  0  0  0  0  0  0
    9.8060   10.8640    2.6610 C   0  0  0  0  0  3  0  0  0  0  0  0
   10.2000   11.1260    1.3550 C   0  0  0  0  0  3  0  0  0  0  0  0
   10.5170   10.0700    0.5020 C   0  0  0  0  0  3  0  0  0  0  0  0
   10.4590    8.7430    0.9560 C   0  0  0  0  0  0  0  0  0  0  0  0
   10.6900    7.6500    0.0760 N   0  0  0  0  0  0  0  0  0  0  0  0
   10.4410    6.3360    0.4450 C   0  0  0  0  0  0  0  0  0  0  0  0
   10.4220    5.3840   -0.3430 O   0  0  0  0  0  0  0  0  0  0  0  0
   10.1090    6.8330    4.1260 O   0  0  0  0  0  0  0  0  0  0  0  0
   10.3220    7.6620    4.6020 H   0  0  0  0  0  0  0  0  0  0  0  0
   11.0900    7.9200   -1.2600 N   0  0  0  0  0  0  0  0  0  0  0  0
   12.0410    8.2990   -1.2290 H   0  0  0  0  0  0  0  0  0  0  0  0
   10.1450    8.8150   -1.9380 C   0  0  0  0  0  3  0  0  0  0  0  0
   10.7540    9.2550   -3.2900 C   0  0  0  0  0  2  0  0  0  0  0  0
    9.3420    9.0520   -3.8850 C   0  0  0  0  0  2  0  0  0  0  0  0
    9.1090    8.0160   -2.7620 C   0  0  0  0  0  2  0  0  0  0  0  0
   10.3360   -0.6980    6.0110 N   0  0  0  0  0  0  0  0  0  0  0  0
   11.0550   -0.9160    6.7050 H   0  0  0  0  0  0  0  0  0  0  0  0
    8.8470   -0.9380    6.7810 S   0  0  0  0  0  0  0  0  0  0  0  0
    8.2860    0.3480    7.1120 O   0  0  0  0  0  0  0  0  0  0  0  0
    9.0380   -1.9730    7.7630 O   0  0  0  0  0  0  0  0  0  0  0  0
    8.5090   -2.9060    5.0440 C   0  0  0  0  0  1  0  0  0  0  0  0
    7.9740   -1.6120    5.5120 N   0  0  0  0  0  0  0  0  0  0  0  0
    7.9730   -0.9280    4.7520 H   0  0  0  0  0  0  0  0  0  0  0  0
  1 34  1  0  0  0  0
  1  2  1  0  0  0  0
  3  2  2  0  0  0  0
  4  3  1  0  0  0  0
  5  6  1  0  0  0  0
  5  4  2  0  0  0  0
  6  1  2  0  0  0  0
  7  5  1  0  0  0  0
  8  7  2  0  0  0  0
  9  7  2  0  0  0  0
 10  7  1  0  0  0  0
 10 11  1  0  0  0  0
 11 15  1  1  0  0  0
 11 12  1  0  0  0  0
 12  4  1  0  0  0  0
 12 14  1  0  0  0  0
 13 10  1  0  0  0  0
 15 16  2  0  0  0  0
 16 26  1  0  0  0  0
 17 16  1  0  0  0  0
 17 18  1  0  0  0  0
 19 18  2  0  0  0  0
 20 19  1  0  0  0  0
 21 22  1  0  0  0  0
 21 20  2  0  0  0  0
 22 17  2  0  0  0  0
 23 24  1  0  0  0  0
 23 22  1  0  0  0  0
 24 15  1  0  0  0  0
 25 24  2  0  0  0  0
 26 27  1  0  0  0  0
 28 29  1  0  0  0  0
 28 23  1  0  0  0  0
 30 28  1  0  0  0  0
 31 30  1  0  0  0  0
 32 31  1  0  0  0  0
 32 33  1  0  0  0  0
 33 30  1  0  0  0  0
 34 35  1  0  0  0  0
 34 36  1  0  0  0  0
 36 37  2  0  0  0  0
 36 38  2  0  0  0  0
 39 40  1  0  0  0  0
 40 36  1  0  0  0  0
 41 40  1  0  0  0  0
M  END
>  <minimizedAffinity>
-4.52626419

$$$$
