
 OpenBabel09122222393D

 34 37  0  0  1  0  0  0  0  0999 V2000
   11.0150    4.6750    4.0670 N   0  0  0  0  0  0  0  0  0  0  0  0
   10.7470    3.3470    3.8230 C   0  0  0  0  0  0  0  0  0  0  0  0
   10.7560    2.8450    2.6950 O   0  0  0  0  0  0  0  0  0  0  0  0
   10.4060    2.4500    4.9750 C   0  0  0  0  0  0  0  0  0  0  0  0
   10.3680    2.9760    6.2130 C   0  0  1  0  0  3  0  0  0  0  0  0
   10.7180    4.3850    6.4590 C   0  0  0  0  0  0  0  0  0  0  0  0
   10.8140    4.9440    7.7430 C   0  0  0  0  0  3  0  0  0  0  0  0
   11.1310    6.2900    7.9010 C   0  0  0  0  0  3  0  0  0  0  0  0
   11.3560    7.0420    6.7670 C   0  0  0  0  0  3  0  0  0  0  0  0
   11.3010    6.5340    5.5210 N   0  0  0  0  0  0  0  0  0  0  0  0
   11.0050    5.2190    5.3750 C   0  0  0  0  0  0  0  0  0  0  0  0
   10.1090    0.9990    4.6570 C   0  0  0  0  0  0  0  0  0  0  0  0
   10.0750    0.1050    5.6150 N   0  0  0  0  0  0  0  0  0  0  0  0
    9.7810   -1.4630    5.4490 S   0  0  0  0  0  0  0  0  0  0  0  0
   10.9850   -2.2100    5.7560 O   0  0  0  0  0  0  0  0  0  0  0  0
    8.5430   -1.7920    6.1280 O   0  0  0  0  0  0  0  0  0  0  0  0
    9.4730   -1.7490    3.7400 C   0  0  0  0  0  0  0  0  0  0  0  0
    9.1620   -3.0450    3.3100 C   0  0  0  0  0  3  0  0  0  0  0  0
    8.9230   -3.2490    1.9590 C   0  0  0  0  0  0  0  0  0  0  0  0
    8.9930   -2.1920    1.0580 C   0  0  0  0  0  3  0  0  0  0  0  0
    9.3040   -0.9060    1.5090 C   0  0  0  0  0  3  0  0  0  0  0  0
    9.5480   -0.6720    2.8650 C   0  0  0  0  0  0  0  0  0  0  0  0
    9.8560    0.6020    3.3250 N   0  0  0  0  0  0  0  0  0  0  0  0
   10.2520    0.4220    6.5630 H   0  0  0  0  0  0  0  0  0  0  0  0
    9.8880    1.3620    2.6430 H   0  0  0  0  0  0  0  0  0  0  0  0
    8.6140   -4.4790    1.4650 O   0  0  0  0  0  0  0  0  0  0  0  0
    8.5920   -5.1290    2.1890 H   0  0  0  0  0  0  0  0  0  0  0  0
    9.9690    2.2080    7.2980 O   0  0  0  0  0  0  0  0  0  0  0  0
    9.5560    2.7880    7.9640 H   0  0  0  0  0  0  0  0  0  0  0  0
   11.3500    5.5670    2.9500 C   0  0  0  0  0  2  0  0  0  0  0  0
   10.1250    6.0590    2.1610 C   0  0  0  0  0  2  0  0  0  0  0  0
    9.1450    6.3680   -0.1710 C   0  0  0  0  0  1  0  0  0  0  0  0
    9.9740    5.4660    0.7460 C   0  0  0  0  0  3  0  0  0  0  0  0
   11.3570    5.2470    0.1260 C   0  0  0  0  0  1  0  0  0  0  0  0
  1 11  1  0  0  0  0
  2  1  1  0  0  0  0
  2  4  1  0  0  0  0
  3  2  2  0  0  0  0
  4  5  1  0  0  0  0
  5  6  1  0  0  0  0
  5 28  1  6  0  0  0
  6  7  1  0  0  0  0
  7  8  2  0  0  0  0
  9  8  1  0  0  0  0
 10  9  2  0  0  0  0
 11 10  1  0  0  0  0
 11  6  2  0  0  0  0
 12  4  2  0  0  0  0
 12 13  1  0  0  0  0
 13 24  1  0  0  0  0
 14 13  1  0  0  0  0
 14 15  2  0  0  0  0
 14 16  2  0  0  0  0
 17 14  1  0  0  0  0
 18 17  1  0  0  0  0
 19 18  2  0  0  0  0
 20 21  2  0  0  0  0
 20 19  1  0  0  0  0
 21 22  1  0  0  0  0
 22 23  1  0  0  0  0
 22 17  2  0  0  0  0
 23 12  1  0  0  0  0
 25 23  1  0  0  0  0
 26 19  1  0  0  0  0
 26 27  1  0  0  0  0
 28 29  1  0  0  0  0
 30  1  1  0  0  0  0
 31 30  1  0  0  0  0
 32 33  1  0  0  0  0
 33 31  1  0  0  0  0
 34 33  1  0  0  0  0
M  END
>  <minimizedAffinity>
-6.0514226

$$$$
