
 OpenBabel09122222393D

 34 37  0  0  1  0  0  0  0  0999 V2000
    9.4820   -0.5930    3.3150 N   0  0  0  0  0  0  0  0  0  0  0  0
    9.5730    0.6190    2.6690 C   0  0  0  0  0  0  0  0  0  0  0  0
    9.1880    0.8060    1.5100 O   0  0  0  0  0  0  0  0  0  0  0  0
   10.1860    1.7840    3.3880 C   0  0  0  0  0  0  0  0  0  0  0  0
   10.6320    1.6020    4.6450 C   0  0  0  0  0  0  0  0  0  0  0  0
   10.4690    0.3150    5.3390 C   0  0  0  0  0  0  0  0  0  0  0  0
   10.8040    0.1160    6.6870 C   0  0  0  0  0  3  0  0  0  0  0  0
   10.6410   -1.1360    7.2750 C   0  0  0  0  0  3  0  0  0  0  0  0
   10.1340   -2.1570    6.4980 C   0  0  0  0  0  3  0  0  0  0  0  0
    9.7750   -1.9960    5.2100 N   0  0  0  0  0  0  0  0  0  0  0  0
    9.9240   -0.7720    4.6490 C   0  0  0  0  0  0  0  0  0  0  0  0
   10.2740    3.0940    2.6340 C   0  0  1  0  0  3  0  0  0  0  0  0
   10.1180    3.1220    1.3340 N   0  0  0  0  0  0  0  0  0  0  0  0
   10.1860    4.4170    0.3900 S   0  0  0  0  0  0  0  0  0  0  0  0
   11.3570    4.3290   -0.4610 O   0  0  0  0  0  0  0  0  0  0  0  0
    8.8840    4.6430   -0.2070 O   0  0  0  0  0  0  0  0  0  0  0  0
   10.4700    5.8020    1.4390 C   0  0  0  0  0  0  0  0  0  0  0  0
   10.5520    7.0810    0.8750 C   0  0  0  0  0  3  0  0  0  0  0  0
   10.7760    8.1580    1.7180 C   0  0  0  0  0  0  0  0  0  0  0  0
   10.9190    7.9690    3.0890 C   0  0  0  0  0  3  0  0  0  0  0  0
   10.8340    6.6830    3.6310 C   0  0  0  0  0  3  0  0  0  0  0  0
   10.6060    5.5810    2.8040 C   0  0  0  0  0  0  0  0  0  0  0  0
   10.5170    4.2980    3.3320 N   0  0  0  0  0  0  0  0  0  0  0  0
    9.9360    2.2420    0.8610 H   0  0  0  0  0  0  0  0  0  0  0  0
   10.6120    4.1910    4.3440 H   0  0  0  0  0  0  0  0  0  0  0  0
   10.8670    9.4310    1.2450 O   0  0  0  0  0  0  0  0  0  0  0  0
   10.7470    9.4330    0.2790 H   0  0  0  0  0  0  0  0  0  0  0  0
   11.2880    2.6240    5.3190 O   0  0  0  0  0  0  0  0  0  0  0  0
   11.9220    2.2330    5.9480 H   0  0  0  0  0  0  0  0  0  0  0  0
    8.8840   -1.7420    2.6250 C   0  0  0  0  0  2  0  0  0  0  0  0
    9.8810   -2.5300    1.7570 C   0  0  0  0  0  2  0  0  0  0  0  0
   10.6900   -2.0860   -0.6180 C   0  0  0  0  0  1  0  0  0  0  0  0
    9.5400   -2.5910    0.2560 C   0  0  0  0  0  3  0  0  0  0  0  0
    9.1980   -4.0310   -0.1390 C   0  0  0  0  0  1  0  0  0  0  0  0
  1 11  1  0  0  0  0
  2  1  1  0  0  0  0
  2  4  1  0  0  0  0
  3  2  2  0  0  0  0
  4  5  2  0  0  0  0
  5 28  1  0  0  0  0
  5  6  1  0  0  0  0
  6  7  1  0  0  0  0
  7  8  2  0  0  0  0
  9  8  1  0  0  0  0
 10  9  2  0  0  0  0
 11 10  1  0  0  0  0
 11  6  2  0  0  0  0
 12 23  1  0  0  0  0
 12  4  1  1  0  0  0
 13 12  1  0  0  0  0
 14 13  1  0  0  0  0
 14 17  1  0  0  0  0
 15 14  2  0  0  0  0
 16 14  2  0  0  0  0
 17 22  1  0  0  0  0
 18 17  2  0  0  0  0
 18 19  1  0  0  0  0
 19 20  2  0  0  0  0
 20 21  1  0  0  0  0
 22 23  1  0  0  0  0
 22 21  2  0  0  0  0
 23 25  1  0  0  0  0
 24 13  1  0  0  0  0
 26 19  1  0  0  0  0
 27 26  1  0  0  0  0
 28 29  1  0  0  0  0
 30  1  1  0  0  0  0
 31 30  1  0  0  0  0
 32 33  1  0  0  0  0
 33 31  1  0  0  0  0
 34 33  1  0  0  0  0
M  END
>  <minimizedAffinity>
-6.57836914

$$$$
