
 OpenBabel09122222393D

 34 37  0  0  1  0  0  0  0  0999 V2000
    9.8900    7.7070    0.2680 N   0  0  0  0  0  0  0  0  0  0  0  0
    9.8600    6.3380    0.1210 C   0  0  0  0  0  0  0  0  0  0  0  0
    9.4730    5.7710   -0.9050 O   0  0  0  0  0  0  0  0  0  0  0  0
   10.3030    5.4730    1.2620 C   0  0  0  0  0  0  0  0  0  0  0  0
   10.7110    6.0660    2.4000 C   0  0  0  0  0  0  0  0  0  0  0  0
   10.7920    7.5310    2.5160 C   0  0  0  0  0  0  0  0  0  0  0  0
   11.3290    8.1900    3.6330 C   0  0  0  0  0  3  0  0  0  0  0  0
   11.3570    9.5800    3.6830 C   0  0  0  0  0  3  0  0  0  0  0  0
   10.8570   10.2790    2.6040 C   0  0  0  0  0  3  0  0  0  0  0  0
   10.3620    9.6820    1.5030 N   0  0  0  0  0  0  0  0  0  0  0  0
   10.3490    8.3280    1.4560 C   0  0  0  0  0  0  0  0  0  0  0  0
   10.2440    3.9740    1.0580 C   0  0  1  0  0  3  0  0  0  0  0  0
    9.6840    3.2040    1.9590 N   0  0  0  0  0  0  0  0  0  0  0  0
    9.5430    1.6080    1.8990 S   0  0  0  0  0  0  0  0  0  0  0  0
   10.3730    1.0150    2.9290 O   0  0  0  0  0  0  0  0  0  0  0  0
    8.1400    1.2530    1.8190 O   0  0  0  0  0  0  0  0  0  0  0  0
   10.2480    1.0880    0.3720 C   0  0  0  0  0  0  0  0  0  0  0  0
   10.2400   -0.2730    0.0430 C   0  0  0  0  0  3  0  0  0  0  0  0
   10.8000   -0.6620   -1.1640 C   0  0  0  0  0  0  0  0  0  0  0  0
   11.3570    0.2790   -2.0240 C   0  0  0  0  0  3  0  0  0  0  0  0
   11.3540    1.6330   -1.6770 C   0  0  0  0  0  3  0  0  0  0  0  0
   10.7940    2.0520   -0.4670 C   0  0  0  0  0  0  0  0  0  0  0  0
   10.7840    3.3960   -0.1120 N   0  0  0  0  0  0  0  0  0  0  0  0
    9.2970    3.6490    2.7860 H   0  0  0  0  0  0  0  0  0  0  0  0
   11.1880    4.0660   -0.7690 H   0  0  0  0  0  0  0  0  0  0  0  0
   10.8290   -1.9660   -1.5530 O   0  0  0  0  0  0  0  0  0  0  0  0
   10.4090   -2.5220   -0.8740 H   0  0  0  0  0  0  0  0  0  0  0  0
   11.0430    5.3080    3.5150 O   0  0  0  0  0  0  0  0  0  0  0  0
   10.8550    5.8270    4.3190 H   0  0  0  0  0  0  0  0  0  0  0  0
    9.4600    8.5680   -0.8400 C   0  0  0  0  0  2  0  0  0  0  0  0
   10.3870    8.5080   -2.0660 C   0  0  0  0  0  2  0  0  0  0  0  0
   11.2420   10.0340   -3.9200 C   0  0  0  0  0  1  0  0  0  0  0  0
   10.0090    9.4540   -3.2230 C   0  0  0  0  0  3  0  0  0  0  0  0
    9.1550    8.7010   -4.2480 C   0  0  0  0  0  1  0  0  0  0  0  0
  1 11  1  0  0  0  0
  2  1  1  0  0  0  0
  2  4  1  0  0  0  0
  3  2  2  0  0  0  0
  4  5  2  0  0  0  0
  5  6  1  0  0  0  0
  5 28  1  0  0  0  0
  6  7  1  0  0  0  0
  7  8  2  0  0  0  0
  9  8  1  0  0  0  0
 10  9  2  0  0  0  0
 11 10  1  0  0  0  0
 11  6  2  0  0  0  0
 12  4  1  6  0  0  0
 12 13  1  0  0  0  0
 13 24  1  0  0  0  0
 14 13  1  0  0  0  0
 14 15  2  0  0  0  0
 16 14  2  0  0  0  0
 17 14  1  0  0  0  0
 18 17  1  0  0  0  0
 19 18  2  0  0  0  0
 20 21  2  0  0  0  0
 20 19  1  0  0  0  0
 21 22  1  0  0  0  0
 22 23  1  0  0  0  0
 22 17  2  0  0  0  0
 23 12  1  0  0  0  0
 25 23  1  0  0  0  0
 26 19  1  0  0  0  0
 26 27  1  0  0  0  0
 28 29  1  0  0  0  0
 30  1  1  0  0  0  0
 31 30  1  0  0  0  0
 32 33  1  0  0  0  0
 33 31  1  0  0  0  0
 34 33  1  0  0  0  0
M  END
>  <minimizedAffinity>
-4.77609396

$$$$
