
 OpenBabel09122222393D

 34 37  0  0  1  0  0  0  0  0999 V2000
    9.3810   -0.9210    1.5720 N   0  0  0  0  0  0  0  0  0  0  0  0
    9.4700    0.4410    1.7530 C   0  0  0  0  0  0  0  0  0  0  0  0
    8.9950    1.0320    2.7270 O   0  0  0  0  0  0  0  0  0  0  0  0
   10.1640    1.2700    0.7140 C   0  0  0  0  0  0  0  0  0  0  0  0
   10.6740    0.6530   -0.3680 C   0  0  0  0  0  0  0  0  0  0  0  0
   10.6210   -0.8110   -0.5130 C   0  0  0  0  0  0  0  0  0  0  0  0
   11.2470   -1.5070   -1.5580 C   0  0  0  0  0  3  0  0  0  0  0  0
   11.1400   -2.8920   -1.6440 C   0  0  0  0  0  3  0  0  0  0  0  0
   10.4160   -3.5490   -0.6710 C   0  0  0  0  0  3  0  0  0  0  0  0
    9.8270   -2.9180    0.3630 N   0  0  0  0  0  0  0  0  0  0  0  0
    9.9460   -1.5710    0.4470 C   0  0  0  0  0  0  0  0  0  0  0  0
   10.2290    2.7640    0.9510 C   0  0  1  0  0  3  0  0  0  0  0  0
   10.0020    3.6010   -0.0310 N   0  0  0  0  0  0  0  0  0  0  0  0
   10.0350    5.2030    0.0500 S   0  0  0  0  0  0  0  0  0  0  0  0
   11.1570    5.6980   -0.7240 O   0  0  0  0  0  0  0  0  0  0  0  0
    8.7060    5.7230   -0.2040 O   0  0  0  0  0  0  0  0  0  0  0  0
   10.3950    5.6240    1.7210 C   0  0  0  0  0  0  0  0  0  0  0  0
   10.4630    6.9740    2.0850 C   0  0  0  0  0  3  0  0  0  0  0  0
   10.7470    7.2850    3.4060 C   0  0  0  0  0  0  0  0  0  0  0  0
   10.9620    6.2790    4.3420 C   0  0  0  0  0  3  0  0  0  0  0  0
   10.8890    4.9370    3.9570 C   0  0  0  0  0  3  0  0  0  0  0  0
   10.6020    4.5960    2.6330 C   0  0  0  0  0  0  0  0  0  0  0  0
   10.5250    3.2660    2.2380 N   0  0  0  0  0  0  0  0  0  0  0  0
    9.7830    3.2110   -0.9430 H   0  0  0  0  0  0  0  0  0  0  0  0
   10.6740    2.5470    2.9500 H   0  0  0  0  0  0  0  0  0  0  0  0
   10.8290    8.5740    3.8370 O   0  0  0  0  0  0  0  0  0  0  0  0
   10.6570    9.1800    3.0960 H   0  0  0  0  0  0  0  0  0  0  0  0
   11.2440    1.3870   -1.4000 O   0  0  0  0  0  0  0  0  0  0  0  0
   11.1250    0.9020   -2.2370 H   0  0  0  0  0  0  0  0  0  0  0  0
    8.7060   -1.7470    2.5800 C   0  0  0  0  0  2  0  0  0  0  0  0
    9.6410   -2.2590    3.6890 C   0  0  0  0  0  2  0  0  0  0  0  0
    8.1640   -2.5360    5.7480 C   0  0  0  0  0  1  0  0  0  0  0  0
    9.3140   -1.7540    5.1080 C   0  0  0  0  0  3  0  0  0  0  0  0
   10.5580   -1.8660    5.9950 C   0  0  0  0  0  1  0  0  0  0  0  0
  1  2  1  0  0  0  0
  1 30  1  0  0  0  0
  2  3  2  0  0  0  0
  4  2  1  0  0  0  0
  5  4  2  0  0  0  0
  6  5  1  0  0  0  0
  6 11  1  0  0  0  0
  7  6  2  0  0  0  0
  8  7  1  0  0  0  0
  8  9  2  0  0  0  0
  9 10  1  0  0  0  0
 10 11  2  0  0  0  0
 11  1  1  0  0  0  0
 12  4  1  1  0  0  0
 12 23  1  0  0  0  0
 13 14  1  0  0  0  0
 13 12  1  0  0  0  0
 14 17  1  0  0  0  0
 15 14  2  0  0  0  0
 16 14  2  0  0  0  0
 17 18  2  0  0  0  0
 17 22  1  0  0  0  0
 18 19  1  0  0  0  0
 19 26  1  0  0  0  0
 19 20  2  0  0  0  0
 21 20  1  0  0  0  0
 22 21  2  0  0  0  0
 23 22  1  0  0  0  0
 23 25  1  0  0  0  0
 24 13  1  0  0  0  0
 27 26  1  0  0  0  0
 28  5  1  0  0  0  0
 29 28  1  0  0  0  0
 30 31  1  0  0  0  0
 31 33  1  0  0  0  0
 33 32  1  0  0  0  0
 33 34  1  0  0  0  0
M  END
>  <minimizedAffinity>
-7.22550011

$$$$
