
 OpenBabel09122222393D

 34 37  0  0  1  0  0  0  0  0999 V2000
    6.1120   -3.6430    4.3270 N   0  0  0  0  0  0  0  0  0  0  0  0
    6.7630   -3.4470    3.1290 C   0  0  0  0  0  0  0  0  0  0  0  0
    6.2560   -3.6910    2.0300 O   0  0  0  0  0  0  0  0  0  0  0  0
    8.1690   -2.9280    3.1410 C   0  0  0  0  0  0  0  0  0  0  0  0
    8.7520   -2.6740    4.3280 C   0  0  0  0  0  0  0  0  0  0  0  0
    8.0180   -2.8320    5.5940 C   0  0  0  0  0  0  0  0  0  0  0  0
    8.5410   -2.4620    6.8420 C   0  0  0  0  0  3  0  0  0  0  0  0
    7.7970   -2.6570    8.0030 C   0  0  0  0  0  3  0  0  0  0  0  0
    6.5390   -3.2110    7.8810 C   0  0  0  0  0  3  0  0  0  0  0  0
    5.9930   -3.5520    6.6990 N   0  0  0  0  0  0  0  0  0  0  0  0
    6.7180   -3.3460    5.5720 C   0  0  0  0  0  0  0  0  0  0  0  0
    8.8480   -2.7370    1.8020 C   0  0  1  0  0  3  0  0  0  0  0  0
    9.2520   -3.7750    1.1100 N   0  0  0  0  0  0  0  0  0  0  0  0
    9.9880   -3.7470   -0.3150 S   0  0  0  0  0  0  0  0  0  0  0  0
   11.3540   -4.2080   -0.1570 O   0  0  0  0  0  0  0  0  0  0  0  0
    9.1330   -4.3700   -1.3070 O   0  0  0  0  0  0  0  0  0  0  0  0
   10.1140   -2.0580   -0.7940 C   0  0  0  0  0  0  0  0  0  0  0  0
   10.7010   -1.7390   -2.0240 C   0  0  0  0  0  3  0  0  0  0  0  0
   10.7910   -0.4030   -2.3830 C   0  0  0  0  0  0  0  0  0  0  0  0
   10.3110    0.5930   -1.5390 C   0  0  0  0  0  3  0  0  0  0  0  0
    9.7270    0.2520   -0.3150 C   0  0  0  0  0  3  0  0  0  0  0  0
    9.6220   -1.0870    0.0700 C   0  0  0  0  0  0  0  0  0  0  0  0
    9.0420   -1.4380    1.2830 N   0  0  0  0  0  0  0  0  0  0  0  0
    9.0920   -4.6970    1.5050 H   0  0  0  0  0  0  0  0  0  0  0  0
    8.6860   -0.6860    1.8770 H   0  0  0  0  0  0  0  0  0  0  0  0
   11.3480   -0.0140   -3.5620 O   0  0  0  0  0  0  0  0  0  0  0  0
   11.6410   -0.7960   -4.0620 H   0  0  0  0  0  0  0  0  0  0  0  0
   10.0820   -2.2790    4.3950 O   0  0  0  0  0  0  0  0  0  0  0  0
   10.4620   -2.5850    5.2380 H   0  0  0  0  0  0  0  0  0  0  0  0
    4.7350   -4.1520    4.3320 C   0  0  0  0  0  2  0  0  0  0  0  0
    3.6680   -3.0480    4.2370 C   0  0  0  0  0  2  0  0  0  0  0  0
    2.5600   -4.4040    6.0890 C   0  0  0  0  0  1  0  0  0  0  0  0
    2.3740   -3.3150    5.0300 C   0  0  0  0  0  3  0  0  0  0  0  0
    1.9080   -2.0230    5.7100 C   0  0  0  0  0  1  0  0  0  0  0  0
  1 30  1  0  0  0  0
  1 11  1  0  0  0  0
  2  4  1  0  0  0  0
  2  1  1  0  0  0  0
  3  2  2  0  0  0  0
  4  5  2  0  0  0  0
  5 28  1  0  0  0  0
  5  6  1  0  0  0  0
  6  7  1  0  0  0  0
  7  8  2  0  0  0  0
  9  8  1  0  0  0  0
 10  9  2  0  0  0  0
 11  6  2  0  0  0  0
 11 10  1  0  0  0  0
 12  4  1  6  0  0  0
 13 24  1  0  0  0  0
 13 12  1  0  0  0  0
 14 15  2  0  0  0  0
 14 13  1  0  0  0  0
 16 14  2  0  0  0  0
 17 14  1  0  0  0  0
 17 22  1  0  0  0  0
 18 17  2  0  0  0  0
 19 18  1  0  0  0  0
 19 20  2  0  0  0  0
 20 21  1  0  0  0  0
 21 22  2  0  0  0  0
 22 23  1  0  0  0  0
 23 12  1  0  0  0  0
 23 25  1  0  0  0  0
 26 19  1  0  0  0  0
 27 26  1  0  0  0  0
 28 29  1  0  0  0  0
 31 30  1  0  0  0  0
 31 33  1  0  0  0  0
 33 34  1  0  0  0  0
 33 32  1  0  0  0  0
M  END
>  <minimizedAffinity>
-7.10270834

$$$$
