
 OpenBabel09122222223D

 34 37  0  0  1  0  0  0  0  0999 V2000
    9.3810   -0.9210    1.5720 N   0  0  0  0  0  0  0  0  0  0  0  0
    9.4700    0.4410    1.7530 C   0  0  0  0  0  0  0  0  0  0  0  0
    8.9950    1.0320    2.7270 O   0  0  0  0  0  0  0  0  0  0  0  0
   10.1640    1.2700    0.7140 C   0  0  0  0  0  0  0  0  0  0  0  0
   10.6740    0.6530   -0.3680 C   0  0  0  0  0  0  0  0  0  0  0  0
   10.6210   -0.8110   -0.5130 C   0  0  0  0  0  0  0  0  0  0  0  0
   11.2470   -1.5070   -1.5580 C   0  0  0  0  0  3  0  0  0  0  0  0
   11.1400   -2.8920   -1.6440 C   0  0  0  0  0  3  0  0  0  0  0  0
   10.4160   -3.5490   -0.6710 C   0  0  0  0  0  3  0  0  0  0  0  0
    9.8270   -2.9180    0.3630 N   0  0  0  0  0  0  0  0  0  0  0  0
    9.9460   -1.5710    0.4470 C   0  0  0  0  0  0  0  0  0  0  0  0
   10.2290    2.7640    0.9510 C   0  0  1  0  0  3  0  0  0  0  0  0
   10.0020    3.6010   -0.0310 N   0  0  0  0  0  0  0  0  0  0  0  0
   10.0350    5.2030    0.0500 S   0  0  0  0  0  0  0  0  0  0  0  0
   11.1570    5.6980   -0.7240 O   0  0  0  0  0  0  0  0  0  0  0  0
    8.7060    5.7230   -0.2040 O   0  0  0  0  0  0  0  0  0  0  0  0
   10.3950    5.6240    1.7210 C   0  0  0  0  0  0  0  0  0  0  0  0
   10.4630    6.9740    2.0850 C   0  0  0  0  0  3  0  0  0  0  0  0
   10.7470    7.2850    3.4060 C   0  0  0  0  0  0  0  0  0  0  0  0
   10.9620    6.2790    4.3420 C   0  0  0  0  0  3  0  0  0  0  0  0
   10.8890    4.9370    3.9570 C   0  0  0  0  0  3  0  0  0  0  0  0
   10.6020    4.5960    2.6330 C   0  0  0  0  0  0  0  0  0  0  0  0
   10.5250    3.2660    2.2380 N   0  0  0  0  0  0  0  0  0  0  0  0
    9.7830    3.2110   -0.9430 H   0  0  0  0  0  0  0  0  0  0  0  0
   10.6740    2.5470    2.9500 H   0  0  0  0  0  0  0  0  0  0  0  0
   10.8290    8.5740    3.8370 O   0  0  0  0  0  0  0  0  0  0  0  0
   10.6570    9.1800    3.0960 H   0  0  0  0  0  0  0  0  0  0  0  0
   11.2440    1.3870   -1.4000 O   0  0  0  0  0  0  0  0  0  0  0  0
   11.1250    0.9020   -2.2370 H   0  0  0  0  0  0  0  0  0  0  0  0
    8.7060   -1.7470    2.5800 C   0  0  0  0  0  2  0  0  0  0  0  0
    9.6410   -2.2590    3.6890 C   0  0  0  0  0  2  0  0  0  0  0  0
    8.1640   -2.5360    5.7480 C   0  0  0  0  0  1  0  0  0  0  0  0
    9.3140   -1.7540    5.1080 C   0  0  0  0  0  3  0  0  0  0  0  0
   10.5580   -1.8660    5.9950 C   0  0  0  0  0  1  0  0  0  0  0  0
  1  2  1  0  0  0  0
  1 30  1  0  0  0  0
  2  3  2  0  0  0  0
  4  2  1  0  0  0  0
  5  4  2  0  0  0  0
  6  5  1  0  0  0  0
  6 11  1  0  0  0  0
  7  6  2  0  0  0  0
  8  7  1  0  0  0  0
  8  9  2  0  0  0  0
  9 10  1  0  0  0  0
 10 11  2  0  0  0  0
 11  1  1  0  0  0  0
 12  4  1  1  0  0  0
 12 23  1  0  0  0  0
 13 14  1  0  0  0  0
 13 12  1  0  0  0  0
 14 17  1  0  0  0  0
 15 14  2  0  0  0  0
 16 14  2  0  0  0  0
 17 18  2  0  0  0  0
 17 22  1  0  0  0  0
 18 19  1  0  0  0  0
 19 26  1  0  0  0  0
 19 20  2  0  0  0  0
 21 20  1  0  0  0  0
 22 21  2  0  0  0  0
 23 22  1  0  0  0  0
 23 25  1  0  0  0  0
 24 13  1  0  0  0  0
 27 26  1  0  0  0  0
 28  5  1  0  0  0  0
 29 28  1  0  0  0  0
 30 31  1  0  0  0  0
 31 33  1  0  0  0  0
 33 32  1  0  0  0  0
 33 34  1  0  0  0  0
M  END
>  <minimizedAffinity>
-7.22550011

$$$$

 OpenBabel09122222223D

 34 37  0  0  1  0  0  0  0  0999 V2000
    6.1120   -3.6430    4.3270 N   0  0  0  0  0  0  0  0  0  0  0  0
    6.7630   -3.4470    3.1290 C   0  0  0  0  0  0  0  0  0  0  0  0
    6.2560   -3.6910    2.0300 O   0  0  0  0  0  0  0  0  0  0  0  0
    8.1690   -2.9280    3.1410 C   0  0  0  0  0  0  0  0  0  0  0  0
    8.7520   -2.6740    4.3280 C   0  0  0  0  0  0  0  0  0  0  0  0
    8.0180   -2.8320    5.5940 C   0  0  0  0  0  0  0  0  0  0  0  0
    8.5410   -2.4620    6.8420 C   0  0  0  0  0  3  0  0  0  0  0  0
    7.7970   -2.6570    8.0030 C   0  0  0  0  0  3  0  0  0  0  0  0
    6.5390   -3.2110    7.8810 C   0  0  0  0  0  3  0  0  0  0  0  0
    5.9930   -3.5520    6.6990 N   0  0  0  0  0  0  0  0  0  0  0  0
    6.7180   -3.3460    5.5720 C   0  0  0  0  0  0  0  0  0  0  0  0
    8.8480   -2.7370    1.8020 C   0  0  1  0  0  3  0  0  0  0  0  0
    9.2520   -3.7750    1.1100 N   0  0  0  0  0  0  0  0  0  0  0  0
    9.9880   -3.7470   -0.3150 S   0  0  0  0  0  0  0  0  0  0  0  0
   11.3540   -4.2080   -0.1570 O   0  0  0  0  0  0  0  0  0  0  0  0
    9.1330   -4.3700   -1.3070 O   0  0  0  0  0  0  0  0  0  0  0  0
   10.1140   -2.0580   -0.7940 C   0  0  0  0  0  0  0  0  0  0  0  0
   10.7010   -1.7390   -2.0240 C   0  0  0  0  0  3  0  0  0  0  0  0
   10.7910   -0.4030   -2.3830 C   0  0  0  0  0  0  0  0  0  0  0  0
   10.3110    0.5930   -1.5390 C   0  0  0  0  0  3  0  0  0  0  0  0
    9.7270    0.2520   -0.3150 C   0  0  0  0  0  3  0  0  0  0  0  0
    9.6220   -1.0870    0.0700 C   0  0  0  0  0  0  0  0  0  0  0  0
    9.0420   -1.4380    1.2830 N   0  0  0  0  0  0  0  0  0  0  0  0
    9.0920   -4.6970    1.5050 H   0  0  0  0  0  0  0  0  0  0  0  0
    8.6860   -0.6860    1.8770 H   0  0  0  0  0  0  0  0  0  0  0  0
   11.3480   -0.0140   -3.5620 O   0  0  0  0  0  0  0  0  0  0  0  0
   11.6410   -0.7960   -4.0620 H   0  0  0  0  0  0  0  0  0  0  0  0
   10.0820   -2.2790    4.3950 O   0  0  0  0  0  0  0  0  0  0  0  0
   10.4620   -2.5850    5.2380 H   0  0  0  0  0  0  0  0  0  0  0  0
    4.7350   -4.1520    4.3320 C   0  0  0  0  0  2  0  0  0  0  0  0
    3.6680   -3.0480    4.2370 C   0  0  0  0  0  2  0  0  0  0  0  0
    2.5600   -4.4040    6.0890 C   0  0  0  0  0  1  0  0  0  0  0  0
    2.3740   -3.3150    5.0300 C   0  0  0  0  0  3  0  0  0  0  0  0
    1.9080   -2.0230    5.7100 C   0  0  0  0  0  1  0  0  0  0  0  0
  1 30  1  0  0  0  0
  1 11  1  0  0  0  0
  2  4  1  0  0  0  0
  2  1  1  0  0  0  0
  3  2  2  0  0  0  0
  4  5  2  0  0  0  0
  5 28  1  0  0  0  0
  5  6  1  0  0  0  0
  6  7  1  0  0  0  0
  7  8  2  0  0  0  0
  9  8  1  0  0  0  0
 10  9  2  0  0  0  0
 11  6  2  0  0  0  0
 11 10  1  0  0  0  0
 12  4  1  6  0  0  0
 13 24  1  0  0  0  0
 13 12  1  0  0  0  0
 14 15  2  0  0  0  0
 14 13  1  0  0  0  0
 16 14  2  0  0  0  0
 17 14  1  0  0  0  0
 17 22  1  0  0  0  0
 18 17  2  0  0  0  0
 19 18  1  0  0  0  0
 19 20  2  0  0  0  0
 20 21  1  0  0  0  0
 21 22  2  0  0  0  0
 22 23  1  0  0  0  0
 23 12  1  0  0  0  0
 23 25  1  0  0  0  0
 26 19  1  0  0  0  0
 27 26  1  0  0  0  0
 28 29  1  0  0  0  0
 31 30  1  0  0  0  0
 31 33  1  0  0  0  0
 33 34  1  0  0  0  0
 33 32  1  0  0  0  0
M  END
>  <minimizedAffinity>
-7.10270834

$$$$

 OpenBabel09122222223D

 34 37  0  0  1  0  0  0  0  0999 V2000
    9.4820   -0.5930    3.3150 N   0  0  0  0  0  0  0  0  0  0  0  0
    9.5730    0.6190    2.6690 C   0  0  0  0  0  0  0  0  0  0  0  0
    9.1880    0.8060    1.5100 O   0  0  0  0  0  0  0  0  0  0  0  0
   10.1860    1.7840    3.3880 C   0  0  0  0  0  0  0  0  0  0  0  0
   10.6320    1.6020    4.6450 C   0  0  0  0  0  0  0  0  0  0  0  0
   10.4690    0.3150    5.3390 C   0  0  0  0  0  0  0  0  0  0  0  0
   10.8040    0.1160    6.6870 C   0  0  0  0  0  3  0  0  0  0  0  0
   10.6410   -1.1360    7.2750 C   0  0  0  0  0  3  0  0  0  0  0  0
   10.1340   -2.1570    6.4980 C   0  0  0  0  0  3  0  0  0  0  0  0
    9.7750   -1.9960    5.2100 N   0  0  0  0  0  0  0  0  0  0  0  0
    9.9240   -0.7720    4.6490 C   0  0  0  0  0  0  0  0  0  0  0  0
   10.2740    3.0940    2.6340 C   0  0  1  0  0  3  0  0  0  0  0  0
   10.1180    3.1220    1.3340 N   0  0  0  0  0  0  0  0  0  0  0  0
   10.1860    4.4170    0.3900 S   0  0  0  0  0  0  0  0  0  0  0  0
   11.3570    4.3290   -0.4610 O   0  0  0  0  0  0  0  0  0  0  0  0
    8.8840    4.6430   -0.2070 O   0  0  0  0  0  0  0  0  0  0  0  0
   10.4700    5.8020    1.4390 C   0  0  0  0  0  0  0  0  0  0  0  0
   10.5520    7.0810    0.8750 C   0  0  0  0  0  3  0  0  0  0  0  0
   10.7760    8.1580    1.7180 C   0  0  0  0  0  0  0  0  0  0  0  0
   10.9190    7.9690    3.0890 C   0  0  0  0  0  3  0  0  0  0  0  0
   10.8340    6.6830    3.6310 C   0  0  0  0  0  3  0  0  0  0  0  0
   10.6060    5.5810    2.8040 C   0  0  0  0  0  0  0  0  0  0  0  0
   10.5170    4.2980    3.3320 N   0  0  0  0  0  0  0  0  0  0  0  0
    9.9360    2.2420    0.8610 H   0  0  0  0  0  0  0  0  0  0  0  0
   10.6120    4.1910    4.3440 H   0  0  0  0  0  0  0  0  0  0  0  0
   10.8670    9.4310    1.2450 O   0  0  0  0  0  0  0  0  0  0  0  0
   10.7470    9.4330    0.2790 H   0  0  0  0  0  0  0  0  0  0  0  0
   11.2880    2.6240    5.3190 O   0  0  0  0  0  0  0  0  0  0  0  0
   11.9220    2.2330    5.9480 H   0  0  0  0  0  0  0  0  0  0  0  0
    8.8840   -1.7420    2.6250 C   0  0  0  0  0  2  0  0  0  0  0  0
    9.8810   -2.5300    1.7570 C   0  0  0  0  0  2  0  0  0  0  0  0
   10.6900   -2.0860   -0.6180 C   0  0  0  0  0  1  0  0  0  0  0  0
    9.5400   -2.5910    0.2560 C   0  0  0  0  0  3  0  0  0  0  0  0
    9.1980   -4.0310   -0.1390 C   0  0  0  0  0  1  0  0  0  0  0  0
  1 11  1  0  0  0  0
  2  1  1  0  0  0  0
  2  4  1  0  0  0  0
  3  2  2  0  0  0  0
  4  5  2  0  0  0  0
  5 28  1  0  0  0  0
  5  6  1  0  0  0  0
  6  7  1  0  0  0  0
  7  8  2  0  0  0  0
  9  8  1  0  0  0  0
 10  9  2  0  0  0  0
 11 10  1  0  0  0  0
 11  6  2  0  0  0  0
 12 23  1  0  0  0  0
 12  4  1  1  0  0  0
 13 12  1  0  0  0  0
 14 13  1  0  0  0  0
 14 17  1  0  0  0  0
 15 14  2  0  0  0  0
 16 14  2  0  0  0  0
 17 22  1  0  0  0  0
 18 17  2  0  0  0  0
 18 19  1  0  0  0  0
 19 20  2  0  0  0  0
 20 21  1  0  0  0  0
 22 23  1  0  0  0  0
 22 21  2  0  0  0  0
 23 25  1  0  0  0  0
 24 13  1  0  0  0  0
 26 19  1  0  0  0  0
 27 26  1  0  0  0  0
 28 29  1  0  0  0  0
 30  1  1  0  0  0  0
 31 30  1  0  0  0  0
 32 33  1  0  0  0  0
 33 31  1  0  0  0  0
 34 33  1  0  0  0  0
M  END
>  <minimizedAffinity>
-6.57836914

$$$$

 OpenBabel09122222223D

 34 37  0  0  1  0  0  0  0  0999 V2000
   10.0070    1.2050    0.4670 N   0  0  0  0  0  0  0  0  0  0  0  0
    9.4950    0.6130    1.6000 C   0  0  0  0  0  0  0  0  0  0  0  0
    9.0610    1.2490    2.5650 O   0  0  0  0  0  0  0  0  0  0  0  0
    9.4720   -0.8830    1.6930 C   0  0  0  0  0  0  0  0  0  0  0  0
    9.9590   -1.6000    0.6630 C   0  0  0  0  0  0  0  0  0  0  0  0
   10.4450   -0.9490   -0.5640 C   0  0  0  0  0  0  0  0  0  0  0  0
   10.8440   -1.6560   -1.7090 C   0  0  0  0  0  3  0  0  0  0  0  0
   11.3110   -0.9750   -2.8290 C   0  0  0  0  0  3  0  0  0  0  0  0
   11.3570    0.4020   -2.7790 C   0  0  0  0  0  3  0  0  0  0  0  0
   10.9560    1.1160   -1.7100 N   0  0  0  0  0  0  0  0  0  0  0  0
   10.4900    0.4470   -0.6280 C   0  0  0  0  0  0  0  0  0  0  0  0
    8.9100   -1.4900    2.9620 C   0  0  1  0  0  3  0  0  0  0  0  0
    9.4540   -1.2190    4.1230 N   0  0  0  0  0  0  0  0  0  0  0  0
    8.9860   -1.7780    5.5510 S   0  0  0  0  0  0  0  0  0  0  0  0
   10.0060   -2.6670    6.0740 O   0  0  0  0  0  0  0  0  0  0  0  0
    8.5130   -0.6760    6.3660 O   0  0  0  0  0  0  0  0  0  0  0  0
    7.5780   -2.7950    5.2680 C   0  0  0  0  0  0  0  0  0  0  0  0
    6.9420   -3.4010    6.3580 C   0  0  0  0  0  3  0  0  0  0  0  0
    5.8340   -4.1980    6.1140 C   0  0  0  0  0  0  0  0  0  0  0  0
    5.3690   -4.3890    4.8170 C   0  0  0  0  0  3  0  0  0  0  0  0
    6.0180   -3.7730    3.7430 C   0  0  0  0  0  3  0  0  0  0  0  0
    7.1360   -2.9640    3.9610 C   0  0  0  0  0  0  0  0  0  0  0  0
    7.7880   -2.3450    2.9010 N   0  0  0  0  0  0  0  0  0  0  0  0
   10.2540   -0.5940    4.1350 H   0  0  0  0  0  0  0  0  0  0  0  0
    7.4160   -2.4930    1.9610 H   0  0  0  0  0  0  0  0  0  0  0  0
    5.1640   -4.8200    7.1220 O   0  0  0  0  0  0  0  0  0  0  0  0
    5.5790   -4.6070    7.9750 H   0  0  0  0  0  0  0  0  0  0  0  0
   10.0440   -2.9840    0.7400 O   0  0  0  0  0  0  0  0  0  0  0  0
   10.7920   -3.2870    0.1930 H   0  0  0  0  0  0  0  0  0  0  0  0
   10.0360    2.6690    0.3610 C   0  0  0  0  0  2  0  0  0  0  0  0
   11.1610    3.3270    1.1780 C   0  0  0  0  0  2  0  0  0  0  0  0
    9.8930    5.4390    0.5230 C   0  0  0  0  0  1  0  0  0  0  0  0
   11.0460    4.8550    1.3430 C   0  0  0  0  0  3  0  0  0  0  0  0
   10.8450    5.2020    2.8210 C   0  0  0  0  0  1  0  0  0  0  0  0
  1  2  1  0  0  0  0
  2  4  1  0  0  0  0
  2  3  2  0  0  0  0
  5 28  1  0  0  0  0
  5  4  2  0  0  0  0
  6  5  1  0  0  0  0
  7  6  2  0  0  0  0
  8  9  2  0  0  0  0
  8  7  1  0  0  0  0
  9 10  1  0  0  0  0
 10 11  2  0  0  0  0
 11  6  1  0  0  0  0
 11  1  1  0  0  0  0
 12  4  1  1  0  0  0
 12 13  1  0  0  0  0
 13 24  1  0  0  0  0
 13 14  1  0  0  0  0
 14 15  2  0  0  0  0
 14 16  2  0  0  0  0
 17 14  1  0  0  0  0
 17 18  1  0  0  0  0
 19 18  2  0  0  0  0
 19 26  1  0  0  0  0
 20 19  1  0  0  0  0
 21 22  1  0  0  0  0
 21 20  2  0  0  0  0
 22 17  2  0  0  0  0
 23 12  1  0  0  0  0
 23 22  1  0  0  0  0
 25 23  1  0  0  0  0
 26 27  1  0  0  0  0
 29 28  1  0  0  0  0
 30  1  1  0  0  0  0
 30 31  1  0  0  0  0
 31 33  1  0  0  0  0
 32 33  1  0  0  0  0
 33 34  1  0  0  0  0
M  END
>  <minimizedAffinity>
-6.53625822

$$$$

 OpenBabel09122222223D

 34 37  0  0  1  0  0  0  0  0999 V2000
   11.0150    4.6750    4.0670 N   0  0  0  0  0  0  0  0  0  0  0  0
   10.7470    3.3470    3.8230 C   0  0  0  0  0  0  0  0  0  0  0  0
   10.7560    2.8450    2.6950 O   0  0  0  0  0  0  0  0  0  0  0  0
   10.4060    2.4500    4.9750 C   0  0  0  0  0  0  0  0  0  0  0  0
   10.3680    2.9760    6.2130 C   0  0  1  0  0  3  0  0  0  0  0  0
   10.7180    4.3850    6.4590 C   0  0  0  0  0  0  0  0  0  0  0  0
   10.8140    4.9440    7.7430 C   0  0  0  0  0  3  0  0  0  0  0  0
   11.1310    6.2900    7.9010 C   0  0  0  0  0  3  0  0  0  0  0  0
   11.3560    7.0420    6.7670 C   0  0  0  0  0  3  0  0  0  0  0  0
   11.3010    6.5340    5.5210 N   0  0  0  0  0  0  0  0  0  0  0  0
   11.0050    5.2190    5.3750 C   0  0  0  0  0  0  0  0  0  0  0  0
   10.1090    0.9990    4.6570 C   0  0  0  0  0  0  0  0  0  0  0  0
   10.0750    0.1050    5.6150 N   0  0  0  0  0  0  0  0  0  0  0  0
    9.7810   -1.4630    5.4490 S   0  0  0  0  0  0  0  0  0  0  0  0
   10.9850   -2.2100    5.7560 O   0  0  0  0  0  0  0  0  0  0  0  0
    8.5430   -1.7920    6.1280 O   0  0  0  0  0  0  0  0  0  0  0  0
    9.4730   -1.7490    3.7400 C   0  0  0  0  0  0  0  0  0  0  0  0
    9.1620   -3.0450    3.3100 C   0  0  0  0  0  3  0  0  0  0  0  0
    8.9230   -3.2490    1.9590 C   0  0  0  0  0  0  0  0  0  0  0  0
    8.9930   -2.1920    1.0580 C   0  0  0  0  0  3  0  0  0  0  0  0
    9.3040   -0.9060    1.5090 C   0  0  0  0  0  3  0  0  0  0  0  0
    9.5480   -0.6720    2.8650 C   0  0  0  0  0  0  0  0  0  0  0  0
    9.8560    0.6020    3.3250 N   0  0  0  0  0  0  0  0  0  0  0  0
   10.2520    0.4220    6.5630 H   0  0  0  0  0  0  0  0  0  0  0  0
    9.8880    1.3620    2.6430 H   0  0  0  0  0  0  0  0  0  0  0  0
    8.6140   -4.4790    1.4650 O   0  0  0  0  0  0  0  0  0  0  0  0
    8.5920   -5.1290    2.1890 H   0  0  0  0  0  0  0  0  0  0  0  0
    9.9690    2.2080    7.2980 O   0  0  0  0  0  0  0  0  0  0  0  0
    9.5560    2.7880    7.9640 H   0  0  0  0  0  0  0  0  0  0  0  0
   11.3500    5.5670    2.9500 C   0  0  0  0  0  2  0  0  0  0  0  0
   10.1250    6.0590    2.1610 C   0  0  0  0  0  2  0  0  0  0  0  0
    9.1450    6.3680   -0.1710 C   0  0  0  0  0  1  0  0  0  0  0  0
    9.9740    5.4660    0.7460 C   0  0  0  0  0  3  0  0  0  0  0  0
   11.3570    5.2470    0.1260 C   0  0  0  0  0  1  0  0  0  0  0  0
  1 11  1  0  0  0  0
  2  1  1  0  0  0  0
  2  4  1  0  0  0  0
  3  2  2  0  0  0  0
  4  5  1  0  0  0  0
  5  6  1  0  0  0  0
  5 28  1  6  0  0  0
  6  7  1  0  0  0  0
  7  8  2  0  0  0  0
  9  8  1  0  0  0  0
 10  9  2  0  0  0  0
 11 10  1  0  0  0  0
 11  6  2  0  0  0  0
 12  4  2  0  0  0  0
 12 13  1  0  0  0  0
 13 24  1  0  0  0  0
 14 13  1  0  0  0  0
 14 15  2  0  0  0  0
 14 16  2  0  0  0  0
 17 14  1  0  0  0  0
 18 17  1  0  0  0  0
 19 18  2  0  0  0  0
 20 21  2  0  0  0  0
 20 19  1  0  0  0  0
 21 22  1  0  0  0  0
 22 23  1  0  0  0  0
 22 17  2  0  0  0  0
 23 12  1  0  0  0  0
 25 23  1  0  0  0  0
 26 19  1  0  0  0  0
 26 27  1  0  0  0  0
 28 29  1  0  0  0  0
 30  1  1  0  0  0  0
 31 30  1  0  0  0  0
 32 33  1  0  0  0  0
 33 31  1  0  0  0  0
 34 33  1  0  0  0  0
M  END
>  <minimizedAffinity>
-6.0514226

$$$$

 OpenBabel09122222223D

 34 37  0  0  1  0  0  0  0  0999 V2000
   10.7780    5.1500    3.0030 N   0  0  0  0  0  0  0  0  0  0  0  0
   10.6510    3.7980    2.7810 C   0  0  0  0  0  0  0  0  0  0  0  0
   11.0120    2.9370    3.5890 O   0  0  0  0  0  0  0  0  0  0  0  0
   10.0590    3.3250    1.4870 C   0  0  0  0  0  0  0  0  0  0  0  0
    9.6760    4.2430    0.5800 C   0  0  0  0  0  0  0  0  0  0  0  0
    9.7650    5.6850    0.8620 C   0  0  0  0  0  0  0  0  0  0  0  0
    9.2640    6.6730    0.0020 C   0  0  0  0  0  3  0  0  0  0  0  0
    9.3990    8.0210    0.3240 C   0  0  0  0  0  3  0  0  0  0  0  0
   10.0250    8.3450    1.5090 C   0  0  0  0  0  3  0  0  0  0  0  0
   10.4930    7.4240    2.3740 N   0  0  0  0  0  0  0  0  0  0  0  0
   10.3450    6.1140    2.0600 C   0  0  0  0  0  0  0  0  0  0  0  0
    9.9480    1.8290    1.2830 C   0  0  1  0  0  3  0  0  0  0  0  0
    9.3550    1.0800    2.1800 N   0  0  0  0  0  0  0  0  0  0  0  0
    9.1580   -0.5110    2.1190 S   0  0  0  0  0  0  0  0  0  0  0  0
    9.9590   -1.1320    3.1550 O   0  0  0  0  0  0  0  0  0  0  0  0
    7.7430   -0.8150    2.0300 O   0  0  0  0  0  0  0  0  0  0  0  0
    9.8540   -1.0560    0.5960 C   0  0  0  0  0  0  0  0  0  0  0  0
    9.7990   -2.4160    0.2680 C   0  0  0  0  0  3  0  0  0  0  0  0
   10.3530   -2.8240   -0.9350 C   0  0  0  0  0  0  0  0  0  0  0  0
   10.9490   -1.9040   -1.7920 C   0  0  0  0  0  3  0  0  0  0  0  0
   10.9920   -0.5510   -1.4450 C   0  0  0  0  0  3  0  0  0  0  0  0
   10.4400   -0.1120   -0.2390 C   0  0  0  0  0  0  0  0  0  0  0  0
   10.4750    1.2320    0.1160 N   0  0  0  0  0  0  0  0  0  0  0  0
    8.9790    1.5390    3.0040 H   0  0  0  0  0  0  0  0  0  0  0  0
   10.9070    1.8870   -0.5390 H   0  0  0  0  0  0  0  0  0  0  0  0
   10.3380   -4.1290   -1.3240 O   0  0  0  0  0  0  0  0  0  0  0  0
    9.8940   -4.6690   -0.6480 H   0  0  0  0  0  0  0  0  0  0  0  0
    9.2090    3.8540   -0.6680 O   0  0  0  0  0  0  0  0  0  0  0  0
    9.4230    4.5490   -1.3180 H   0  0  0  0  0  0  0  0  0  0  0  0
   11.3550    5.6300    4.2660 C   0  0  0  0  0  2  0  0  0  0  0  0
   10.4820    5.3340    5.4970 C   0  0  0  0  0  2  0  0  0  0  0  0
   11.1760    5.5960    7.9350 C   0  0  0  0  0  1  0  0  0  0  0  0
   11.2230    4.7040    6.6920 C   0  0  0  0  0  3  0  0  0  0  0  0
   10.6070    3.3410    7.0230 C   0  0  0  0  0  1  0  0  0  0  0  0
  1 30  1  0  0  0  0
  2  1  1  0  0  0  0
  2  3  2  0  0  0  0
  4  2  1  0  0  0  0
  5  6  1  0  0  0  0
  5  4  2  0  0  0  0
  6 11  1  0  0  0  0
  7  8  1  0  0  0  0
  7  6  2  0  0  0  0
  8  9  2  0  0  0  0
  9 10  1  0  0  0  0
 11 10  2  0  0  0  0
 11  1  1  0  0  0  0
 12  4  1  6  0  0  0
 12 13  1  0  0  0  0
 13 24  1  0  0  0  0
 14 13  1  0  0  0  0
 14 15  2  0  0  0  0
 16 14  2  0  0  0  0
 17 14  1  0  0  0  0
 18 17  1  0  0  0  0
 19 18  2  0  0  0  0
 20 21  2  0  0  0  0
 20 19  1  0  0  0  0
 21 22  1  0  0  0  0
 22 23  1  0  0  0  0
 22 17  2  0  0  0  0
 23 12  1  0  0  0  0
 25 23  1  0  0  0  0
 26 19  1  0  0  0  0
 26 27  1  0  0  0  0
 28  5  1  0  0  0  0
 29 28  1  0  0  0  0
 30 31  1  0  0  0  0
 31 33  1  0  0  0  0
 33 34  1  0  0  0  0
 33 32  1  0  0  0  0
M  END
>  <minimizedAffinity>
-5.73339081

$$$$

 OpenBabel09122222223D

 34 37  0  0  1  0  0  0  0  0999 V2000
   10.6800    4.7080    1.7920 N   0  0  0  0  0  0  0  0  0  0  0  0
   10.4640    3.3560    1.9430 C   0  0  0  0  0  0  0  0  0  0  0  0
   10.3140    2.5790    0.9960 O   0  0  0  0  0  0  0  0  0  0  0  0
   10.3870    2.7820    3.3260 C   0  0  0  0  0  0  0  0  0  0  0  0
   10.5270    3.6120    4.3770 C   0  0  1  0  0  3  0  0  0  0  0  0
   10.8180    5.0420    4.1930 C   0  0  0  0  0  0  0  0  0  0  0  0
   11.0950    5.9180    5.2540 C   0  0  0  0  0  3  0  0  0  0  0  0
   11.3430    7.2650    5.0070 C   0  0  0  0  0  3  0  0  0  0  0  0
   11.3190    7.7010    3.6990 C   0  0  0  0  0  3  0  0  0  0  0  0
   11.0860    6.8850    2.6530 N   0  0  0  0  0  0  0  0  0  0  0  0
   10.8580    5.5720    2.8990 C   0  0  0  0  0  0  0  0  0  0  0  0
   10.1380    1.2930    3.4440 C   0  0  0  0  0  0  0  0  0  0  0  0
   10.1970    0.7020    4.6120 N   0  0  0  0  0  0  0  0  0  0  0  0
    9.9650   -0.8570    4.9080 S   0  0  0  0  0  0  0  0  0  0  0  0
   11.2160   -1.4550    5.3310 O   0  0  0  0  0  0  0  0  0  0  0  0
    8.7820   -1.0170    5.7310 O   0  0  0  0  0  0  0  0  0  0  0  0
    9.5760   -1.6190    3.3690 C   0  0  0  0  0  0  0  0  0  0  0  0
    9.3000   -2.9910    3.3370 C   0  0  0  0  0  3  0  0  0  0  0  0
    8.9960   -3.5720    2.1150 C   0  0  0  0  0  0  0  0  0  0  0  0
    8.9690   -2.8080    0.9530 C   0  0  0  0  0  3  0  0  0  0  0  0
    9.2470   -1.4390    1.0080 C   0  0  0  0  0  3  0  0  0  0  0  0
    9.5550   -0.8280    2.2270 C   0  0  0  0  0  0  0  0  0  0  0  0
    9.8310    0.5320    2.2940 N   0  0  0  0  0  0  0  0  0  0  0  0
   10.4110    1.2770    5.4210 H   0  0  0  0  0  0  0  0  0  0  0  0
    9.7900    1.0710    1.4270 H   0  0  0  0  0  0  0  0  0  0  0  0
    8.7170   -4.8990    2.0030 O   0  0  0  0  0  0  0  0  0  0  0  0
    8.7630   -5.3210    2.8790 H   0  0  0  0  0  0  0  0  0  0  0  0
   10.3720    3.1430    5.6750 O   0  0  0  0  0  0  0  0  0  0  0  0
   10.0410    3.8680    6.2360 H   0  0  0  0  0  0  0  0  0  0  0  0
   10.7590    5.2860    0.4440 C   0  0  0  0  0  2  0  0  0  0  0  0
    9.5250    6.1160    0.0540 C   0  0  0  0  0  2  0  0  0  0  0  0
    9.9260    7.7480   -1.8630 C   0  0  0  0  0  1  0  0  0  0  0  0
    9.8140    7.5760   -0.3460 C   0  0  0  0  0  3  0  0  0  0  0  0
    8.7050    8.4880    0.1870 C   0  0  0  0  0  1  0  0  0  0  0  0
  1  2  1  0  0  0  0
  1 11  1  0  0  0  0
  2  4  1  0  0  0  0
  3  2  2  0  0  0  0
  4 12  2  0  0  0  0
  4  5  1  0  0  0  0
  5 28  1  6  0  0  0
  6  5  1  0  0  0  0
  6  7  1  0  0  0  0
  8  7  2  0  0  0  0
  9  8  1  0  0  0  0
 10 11  1  0  0  0  0
 10  9  2  0  0  0  0
 11  6  2  0  0  0  0
 12 13  1  0  0  0  0
 13 14  1  0  0  0  0
 13 24  1  0  0  0  0
 14 15  2  0  0  0  0
 14 16  2  0  0  0  0
 17 14  1  0  0  0  0
 18 17  1  0  0  0  0
 19 18  2  0  0  0  0
 20 21  2  0  0  0  0
 20 19  1  0  0  0  0
 21 22  1  0  0  0  0
 22 23  1  0  0  0  0
 22 17  2  0  0  0  0
 23 12  1  0  0  0  0
 25 23  1  0  0  0  0
 26 19  1  0  0  0  0
 26 27  1  0  0  0  0
 28 29  1  0  0  0  0
 30  1  1  0  0  0  0
 31 30  1  0  0  0  0
 32 33  1  0  0  0  0
 33 31  1  0  0  0  0
 33 34  1  0  0  0  0
M  END
>  <minimizedAffinity>
-5.42996454

$$$$

 OpenBabel09122222223D

 34 37  0  0  1  0  0  0  0  0999 V2000
   10.6580    2.7000    3.1250 N   0  0  0  0  0  0  0  0  0  0  0  0
   10.4420    3.8840    2.4560 C   0  0  0  0  0  0  0  0  0  0  0  0
   10.1930    3.9500    1.2490 O   0  0  0  0  0  0  0  0  0  0  0  0
   10.5270    5.1750    3.2140 C   0  0  0  0  0  0  0  0  0  0  0  0
   10.8180    5.1330    4.5280 C   0  0  0  0  0  0  0  0  0  0  0  0
   10.9850    3.8540    5.2370 C   0  0  0  0  0  0  0  0  0  0  0  0
   11.1640    3.7570    6.6250 C   0  0  0  0  0  3  0  0  0  0  0  0
   11.3350    2.5140    7.2280 C   0  0  0  0  0  3  0  0  0  0  0  0
   11.3100    1.3940    6.4230 C   0  0  0  0  0  3  0  0  0  0  0  0
   11.1120    1.4450    5.0920 N   0  0  0  0  0  0  0  0  0  0  0  0
   10.9330    2.6580    4.5140 C   0  0  0  0  0  0  0  0  0  0  0  0
   10.2930    6.4520    2.4350 C   0  0  1  0  0  3  0  0  0  0  0  0
   10.0200    7.5700    3.0620 N   0  0  0  0  0  0  0  0  0  0  0  0
    9.7420    9.0000    2.3910 S   0  0  0  0  0  0  0  0  0  0  0  0
    8.3550    9.3660    2.6010 O   0  0  0  0  0  0  0  0  0  0  0  0
   10.7920    9.9220    2.7770 O   0  0  0  0  0  0  0  0  0  0  0  0
    9.9140    8.7910    0.6510 C   0  0  0  0  0  0  0  0  0  0  0  0
    9.7460    9.8980   -0.1890 C   0  0  0  0  0  3  0  0  0  0  0  0
    9.8850    9.7130   -1.5560 C   0  0  0  0  0  0  0  0  0  0  0  0
   10.1830    8.4580   -2.0760 C   0  0  0  0  0  3  0  0  0  0  0  0
   10.3470    7.3660   -1.2190 C   0  0  0  0  0  3  0  0  0  0  0  0
   10.2140    7.5250    0.1630 C   0  0  0  0  0  0  0  0  0  0  0  0
   10.3770    6.4480    1.0250 N   0  0  0  0  0  0  0  0  0  0  0  0
    9.9740    7.5430    4.0760 H   0  0  0  0  0  0  0  0  0  0  0  0
   10.6080    5.5400    0.6160 H   0  0  0  0  0  0  0  0  0  0  0  0
    9.7370   10.7410   -2.4360 O   0  0  0  0  0  0  0  0  0  0  0  0
    9.5360   11.5620   -1.9550 H   0  0  0  0  0  0  0  0  0  0  0  0
   10.9980    6.3040    5.2520 O   0  0  0  0  0  0  0  0  0  0  0  0
   11.6240    6.1340    5.9800 H   0  0  0  0  0  0  0  0  0  0  0  0
   10.5780    1.4280    2.3980 C   0  0  0  0  0  2  0  0  0  0  0  0
    9.1410    1.0000    2.0550 C   0  0  0  0  0  2  0  0  0  0  0  0
    9.5080   -1.0850    0.6350 C   0  0  0  0  0  1  0  0  0  0  0  0
    8.9200   -0.5200    1.9310 C   0  0  0  0  0  3  0  0  0  0  0  0
    9.5530   -1.2350    3.1280 C   0  0  0  0  0  1  0  0  0  0  0  0
  1 11  1  0  0  0  0
  2  1  1  0  0  0  0
  2  4  1  0  0  0  0
  3  2  2  0  0  0  0
  4  5  2  0  0  0  0
  5  6  1  0  0  0  0
  5 28  1  0  0  0  0
  6  7  1  0  0  0  0
  7  8  2  0  0  0  0
  9  8  1  0  0  0  0
 10  9  2  0  0  0  0
 11 10  1  0  0  0  0
 11  6  2  0  0  0  0
 12 13  1  0  0  0  0
 12  4  1  1  0  0  0
 13 24  1  0  0  0  0
 14 15  2  0  0  0  0
 14 16  2  0  0  0  0
 14 13  1  0  0  0  0
 17 14  1  0  0  0  0
 18 17  2  0  0  0  0
 19 18  1  0  0  0  0
 20 19  2  0  0  0  0
 20 21  1  0  0  0  0
 21 22  2  0  0  0  0
 22 17  1  0  0  0  0
 22 23  1  0  0  0  0
 23 12  1  0  0  0  0
 25 23  1  0  0  0  0
 26 27  1  0  0  0  0
 26 19  1  0  0  0  0
 28 29  1  0  0  0  0
 30  1  1  0  0  0  0
 31 30  1  0  0  0  0
 32 33  1  0  0  0  0
 33 31  1  0  0  0  0
 33 34  1  0  0  0  0
M  END
>  <minimizedAffinity>
-5.42288685

$$$$

 OpenBabel09122222223D

 34 37  0  0  1  0  0  0  0  0999 V2000
    9.8250   -1.0030    1.6090 N   0  0  0  0  0  0  0  0  0  0  0  0
    9.0220   -1.2840    2.6910 C   0  0  0  0  0  0  0  0  0  0  0  0
    8.7530   -0.4630    3.5730 O   0  0  0  0  0  0  0  0  0  0  0  0
    8.4460   -2.6610    2.8320 C   0  0  0  0  0  0  0  0  0  0  0  0
    8.7400   -3.5820    1.8950 C   0  0  0  0  0  0  0  0  0  0  0  0
    9.5510   -3.2430    0.7140 C   0  0  0  0  0  0  0  0  0  0  0  0
    9.7790   -4.1320   -0.3480 C   0  0  0  0  0  3  0  0  0  0  0  0
   10.5730   -3.7510   -1.4260 C   0  0  0  0  0  3  0  0  0  0  0  0
   11.1120   -2.4810   -1.4180 C   0  0  0  0  0  3  0  0  0  0  0  0
   10.8920   -1.5910   -0.4310 N   0  0  0  0  0  0  0  0  0  0  0  0
   10.1070   -1.9650    0.6080 C   0  0  0  0  0  0  0  0  0  0  0  0
    7.5770   -2.9280    4.0430 C   0  0  1  0  0  3  0  0  0  0  0  0
    7.9650   -2.5450    5.2340 N   0  0  0  0  0  0  0  0  0  0  0  0
    7.1700   -2.7520    6.6120 S   0  0  0  0  0  0  0  0  0  0  0  0
    7.8970   -3.6870    7.4480 O   0  0  0  0  0  0  0  0  0  0  0  0
    6.7930   -1.4580    7.1470 O   0  0  0  0  0  0  0  0  0  0  0  0
    5.6560   -3.5570    6.2140 C   0  0  0  0  0  0  0  0  0  0  0  0
    4.7450   -3.8440    7.2380 C   0  0  0  0  0  3  0  0  0  0  0  0
    3.5580   -4.4780    6.9040 C   0  0  0  0  0  0  0  0  0  0  0  0
    3.2840   -4.8220    5.5840 C   0  0  0  0  0  3  0  0  0  0  0  0
    4.2070   -4.5250    4.5770 C   0  0  0  0  0  3  0  0  0  0  0  0
    5.4100   -3.8850    4.8860 C   0  0  0  0  0  0  0  0  0  0  0  0
    6.3350   -3.5830    3.8930 N   0  0  0  0  0  0  0  0  0  0  0  0
    8.8590   -2.0680    5.3090 H   0  0  0  0  0  0  0  0  0  0  0  0
    6.1010   -3.8350    2.9310 H   0  0  0  0  0  0  0  0  0  0  0  0
    2.6240   -4.7890    7.8430 O   0  0  0  0  0  0  0  0  0  0  0  0
    2.9270   -4.4970    8.7200 H   0  0  0  0  0  0  0  0  0  0  0  0
    8.3070   -4.8940    2.0290 O   0  0  0  0  0  0  0  0  0  0  0  0
    8.9440   -5.4860    1.5880 H   0  0  0  0  0  0  0  0  0  0  0  0
   10.3960    0.3410    1.4560 C   0  0  0  0  0  2  0  0  0  0  0  0
    9.3850    1.3910    0.9660 C   0  0  0  0  0  2  0  0  0  0  0  0
   10.9020    2.9330    2.3140 C   0  0  0  0  0  1  0  0  0  0  0  0
    9.6900    2.8430    1.3840 C   0  0  0  0  0  3  0  0  0  0  0  0
    9.9430    3.6980    0.1390 C   0  0  0  0  0  1  0  0  0  0  0  0
  1  2  1  0  0  0  0
  2  4  1  0  0  0  0
  2  3  2  0  0  0  0
  5 28  1  0  0  0  0
  5  4  2  0  0  0  0
  6  5  1  0  0  0  0
  7  6  2  0  0  0  0
  8  9  2  0  0  0  0
  8  7  1  0  0  0  0
  9 10  1  0  0  0  0
 10 11  2  0  0  0  0
 11  6  1  0  0  0  0
 11  1  1  0  0  0  0
 12  4  1  6  0  0  0
 12 13  1  0  0  0  0
 13 24  1  0  0  0  0
 13 14  1  0  0  0  0
 14 16  2  0  0  0  0
 14 15  2  0  0  0  0
 17 14  1  0  0  0  0
 17 18  1  0  0  0  0
 19 18  2  0  0  0  0
 19 26  1  0  0  0  0
 20 19  1  0  0  0  0
 21 22  1  0  0  0  0
 21 20  2  0  0  0  0
 22 17  2  0  0  0  0
 23 12  1  0  0  0  0
 23 22  1  0  0  0  0
 25 23  1  0  0  0  0
 26 27  1  0  0  0  0
 29 28  1  0  0  0  0
 30  1  1  0  0  0  0
 31 33  1  0  0  0  0
 31 30  1  0  0  0  0
 33 32  1  0  0  0  0
 34 33  1  0  0  0  0
M  END
>  <minimizedAffinity>
-4.82796192

$$$$

 OpenBabel09122222223D

 34 37  0  0  1  0  0  0  0  0999 V2000
    9.8900    7.7070    0.2680 N   0  0  0  0  0  0  0  0  0  0  0  0
    9.8600    6.3380    0.1210 C   0  0  0  0  0  0  0  0  0  0  0  0
    9.4730    5.7710   -0.9050 O   0  0  0  0  0  0  0  0  0  0  0  0
   10.3030    5.4730    1.2620 C   0  0  0  0  0  0  0  0  0  0  0  0
   10.7110    6.0660    2.4000 C   0  0  0  0  0  0  0  0  0  0  0  0
   10.7920    7.5310    2.5160 C   0  0  0  0  0  0  0  0  0  0  0  0
   11.3290    8.1900    3.6330 C   0  0  0  0  0  3  0  0  0  0  0  0
   11.3570    9.5800    3.6830 C   0  0  0  0  0  3  0  0  0  0  0  0
   10.8570   10.2790    2.6040 C   0  0  0  0  0  3  0  0  0  0  0  0
   10.3620    9.6820    1.5030 N   0  0  0  0  0  0  0  0  0  0  0  0
   10.3490    8.3280    1.4560 C   0  0  0  0  0  0  0  0  0  0  0  0
   10.2440    3.9740    1.0580 C   0  0  1  0  0  3  0  0  0  0  0  0
    9.6840    3.2040    1.9590 N   0  0  0  0  0  0  0  0  0  0  0  0
    9.5430    1.6080    1.8990 S   0  0  0  0  0  0  0  0  0  0  0  0
   10.3730    1.0150    2.9290 O   0  0  0  0  0  0  0  0  0  0  0  0
    8.1400    1.2530    1.8190 O   0  0  0  0  0  0  0  0  0  0  0  0
   10.2480    1.0880    0.3720 C   0  0  0  0  0  0  0  0  0  0  0  0
   10.2400   -0.2730    0.0430 C   0  0  0  0  0  3  0  0  0  0  0  0
   10.8000   -0.6620   -1.1640 C   0  0  0  0  0  0  0  0  0  0  0  0
   11.3570    0.2790   -2.0240 C   0  0  0  0  0  3  0  0  0  0  0  0
   11.3540    1.6330   -1.6770 C   0  0  0  0  0  3  0  0  0  0  0  0
   10.7940    2.0520   -0.4670 C   0  0  0  0  0  0  0  0  0  0  0  0
   10.7840    3.3960   -0.1120 N   0  0  0  0  0  0  0  0  0  0  0  0
    9.2970    3.6490    2.7860 H   0  0  0  0  0  0  0  0  0  0  0  0
   11.1880    4.0660   -0.7690 H   0  0  0  0  0  0  0  0  0  0  0  0
   10.8290   -1.9660   -1.5530 O   0  0  0  0  0  0  0  0  0  0  0  0
   10.4090   -2.5220   -0.8740 H   0  0  0  0  0  0  0  0  0  0  0  0
   11.0430    5.3080    3.5150 O   0  0  0  0  0  0  0  0  0  0  0  0
   10.8550    5.8270    4.3190 H   0  0  0  0  0  0  0  0  0  0  0  0
    9.4600    8.5680   -0.8400 C   0  0  0  0  0  2  0  0  0  0  0  0
   10.3870    8.5080   -2.0660 C   0  0  0  0  0  2  0  0  0  0  0  0
   11.2420   10.0340   -3.9200 C   0  0  0  0  0  1  0  0  0  0  0  0
   10.0090    9.4540   -3.2230 C   0  0  0  0  0  3  0  0  0  0  0  0
    9.1550    8.7010   -4.2480 C   0  0  0  0  0  1  0  0  0  0  0  0
  1 11  1  0  0  0  0
  2  1  1  0  0  0  0
  2  4  1  0  0  0  0
  3  2  2  0  0  0  0
  4  5  2  0  0  0  0
  5  6  1  0  0  0  0
  5 28  1  0  0  0  0
  6  7  1  0  0  0  0
  7  8  2  0  0  0  0
  9  8  1  0  0  0  0
 10  9  2  0  0  0  0
 11 10  1  0  0  0  0
 11  6  2  0  0  0  0
 12  4  1  6  0  0  0
 12 13  1  0  0  0  0
 13 24  1  0  0  0  0
 14 13  1  0  0  0  0
 14 15  2  0  0  0  0
 16 14  2  0  0  0  0
 17 14  1  0  0  0  0
 18 17  1  0  0  0  0
 19 18  2  0  0  0  0
 20 21  2  0  0  0  0
 20 19  1  0  0  0  0
 21 22  1  0  0  0  0
 22 23  1  0  0  0  0
 22 17  2  0  0  0  0
 23 12  1  0  0  0  0
 25 23  1  0  0  0  0
 26 19  1  0  0  0  0
 26 27  1  0  0  0  0
 28 29  1  0  0  0  0
 30  1  1  0  0  0  0
 31 30  1  0  0  0  0
 32 33  1  0  0  0  0
 33 31  1  0  0  0  0
 34 33  1  0  0  0  0
M  END
>  <minimizedAffinity>
-4.77609396

$$$$
