
 OpenBabel09122222393D

 34 37  0  0  1  0  0  0  0  0999 V2000
   10.6580    2.7000    3.1250 N   0  0  0  0  0  0  0  0  0  0  0  0
   10.4420    3.8840    2.4560 C   0  0  0  0  0  0  0  0  0  0  0  0
   10.1930    3.9500    1.2490 O   0  0  0  0  0  0  0  0  0  0  0  0
   10.5270    5.1750    3.2140 C   0  0  0  0  0  0  0  0  0  0  0  0
   10.8180    5.1330    4.5280 C   0  0  0  0  0  0  0  0  0  0  0  0
   10.9850    3.8540    5.2370 C   0  0  0  0  0  0  0  0  0  0  0  0
   11.1640    3.7570    6.6250 C   0  0  0  0  0  3  0  0  0  0  0  0
   11.3350    2.5140    7.2280 C   0  0  0  0  0  3  0  0  0  0  0  0
   11.3100    1.3940    6.4230 C   0  0  0  0  0  3  0  0  0  0  0  0
   11.1120    1.4450    5.0920 N   0  0  0  0  0  0  0  0  0  0  0  0
   10.9330    2.6580    4.5140 C   0  0  0  0  0  0  0  0  0  0  0  0
   10.2930    6.4520    2.4350 C   0  0  1  0  0  3  0  0  0  0  0  0
   10.0200    7.5700    3.0620 N   0  0  0  0  0  0  0  0  0  0  0  0
    9.7420    9.0000    2.3910 S   0  0  0  0  0  0  0  0  0  0  0  0
    8.3550    9.3660    2.6010 O   0  0  0  0  0  0  0  0  0  0  0  0
   10.7920    9.9220    2.7770 O   0  0  0  0  0  0  0  0  0  0  0  0
    9.9140    8.7910    0.6510 C   0  0  0  0  0  0  0  0  0  0  0  0
    9.7460    9.8980   -0.1890 C   0  0  0  0  0  3  0  0  0  0  0  0
    9.8850    9.7130   -1.5560 C   0  0  0  0  0  0  0  0  0  0  0  0
   10.1830    8.4580   -2.0760 C   0  0  0  0  0  3  0  0  0  0  0  0
   10.3470    7.3660   -1.2190 C   0  0  0  0  0  3  0  0  0  0  0  0
   10.2140    7.5250    0.1630 C   0  0  0  0  0  0  0  0  0  0  0  0
   10.3770    6.4480    1.0250 N   0  0  0  0  0  0  0  0  0  0  0  0
    9.9740    7.5430    4.0760 H   0  0  0  0  0  0  0  0  0  0  0  0
   10.6080    5.5400    0.6160 H   0  0  0  0  0  0  0  0  0  0  0  0
    9.7370   10.7410   -2.4360 O   0  0  0  0  0  0  0  0  0  0  0  0
    9.5360   11.5620   -1.9550 H   0  0  0  0  0  0  0  0  0  0  0  0
   10.9980    6.3040    5.2520 O   0  0  0  0  0  0  0  0  0  0  0  0
   11.6240    6.1340    5.9800 H   0  0  0  0  0  0  0  0  0  0  0  0
   10.5780    1.4280    2.3980 C   0  0  0  0  0  2  0  0  0  0  0  0
    9.1410    1.0000    2.0550 C   0  0  0  0  0  2  0  0  0  0  0  0
    9.5080   -1.0850    0.6350 C   0  0  0  0  0  1  0  0  0  0  0  0
    8.9200   -0.5200    1.9310 C   0  0  0  0  0  3  0  0  0  0  0  0
    9.5530   -1.2350    3.1280 C   0  0  0  0  0  1  0  0  0  0  0  0
  1 11  1  0  0  0  0
  2  1  1  0  0  0  0
  2  4  1  0  0  0  0
  3  2  2  0  0  0  0
  4  5  2  0  0  0  0
  5  6  1  0  0  0  0
  5 28  1  0  0  0  0
  6  7  1  0  0  0  0
  7  8  2  0  0  0  0
  9  8  1  0  0  0  0
 10  9  2  0  0  0  0
 11 10  1  0  0  0  0
 11  6  2  0  0  0  0
 12 13  1  0  0  0  0
 12  4  1  1  0  0  0
 13 24  1  0  0  0  0
 14 15  2  0  0  0  0
 14 16  2  0  0  0  0
 14 13  1  0  0  0  0
 17 14  1  0  0  0  0
 18 17  2  0  0  0  0
 19 18  1  0  0  0  0
 20 19  2  0  0  0  0
 20 21  1  0  0  0  0
 21 22  2  0  0  0  0
 22 17  1  0  0  0  0
 22 23  1  0  0  0  0
 23 12  1  0  0  0  0
 25 23  1  0  0  0  0
 26 27  1  0  0  0  0
 26 19  1  0  0  0  0
 28 29  1  0  0  0  0
 30  1  1  0  0  0  0
 31 30  1  0  0  0  0
 32 33  1  0  0  0  0
 33 31  1  0  0  0  0
 33 34  1  0  0  0  0
M  END
>  <minimizedAffinity>
-5.42288685

$$$$
