
 OpenBabel09122222393D

 34 37  0  0  1  0  0  0  0  0999 V2000
   10.7780    5.1500    3.0030 N   0  0  0  0  0  0  0  0  0  0  0  0
   10.6510    3.7980    2.7810 C   0  0  0  0  0  0  0  0  0  0  0  0
   11.0120    2.9370    3.5890 O   0  0  0  0  0  0  0  0  0  0  0  0
   10.0590    3.3250    1.4870 C   0  0  0  0  0  0  0  0  0  0  0  0
    9.6760    4.2430    0.5800 C   0  0  0  0  0  0  0  0  0  0  0  0
    9.7650    5.6850    0.8620 C   0  0  0  0  0  0  0  0  0  0  0  0
    9.2640    6.6730    0.0020 C   0  0  0  0  0  3  0  0  0  0  0  0
    9.3990    8.0210    0.3240 C   0  0  0  0  0  3  0  0  0  0  0  0
   10.0250    8.3450    1.5090 C   0  0  0  0  0  3  0  0  0  0  0  0
   10.4930    7.4240    2.3740 N   0  0  0  0  0  0  0  0  0  0  0  0
   10.3450    6.1140    2.0600 C   0  0  0  0  0  0  0  0  0  0  0  0
    9.9480    1.8290    1.2830 C   0  0  1  0  0  3  0  0  0  0  0  0
    9.3550    1.0800    2.1800 N   0  0  0  0  0  0  0  0  0  0  0  0
    9.1580   -0.5110    2.1190 S   0  0  0  0  0  0  0  0  0  0  0  0
    9.9590   -1.1320    3.1550 O   0  0  0  0  0  0  0  0  0  0  0  0
    7.7430   -0.8150    2.0300 O   0  0  0  0  0  0  0  0  0  0  0  0
    9.8540   -1.0560    0.5960 C   0  0  0  0  0  0  0  0  0  0  0  0
    9.7990   -2.4160    0.2680 C   0  0  0  0  0  3  0  0  0  0  0  0
   10.3530   -2.8240   -0.9350 C   0  0  0  0  0  0  0  0  0  0  0  0
   10.9490   -1.9040   -1.7920 C   0  0  0  0  0  3  0  0  0  0  0  0
   10.9920   -0.5510   -1.4450 C   0  0  0  0  0  3  0  0  0  0  0  0
   10.4400   -0.1120   -0.2390 C   0  0  0  0  0  0  0  0  0  0  0  0
   10.4750    1.2320    0.1160 N   0  0  0  0  0  0  0  0  0  0  0  0
    8.9790    1.5390    3.0040 H   0  0  0  0  0  0  0  0  0  0  0  0
   10.9070    1.8870   -0.5390 H   0  0  0  0  0  0  0  0  0  0  0  0
   10.3380   -4.1290   -1.3240 O   0  0  0  0  0  0  0  0  0  0  0  0
    9.8940   -4.6690   -0.6480 H   0  0  0  0  0  0  0  0  0  0  0  0
    9.2090    3.8540   -0.6680 O   0  0  0  0  0  0  0  0  0  0  0  0
    9.4230    4.5490   -1.3180 H   0  0  0  0  0  0  0  0  0  0  0  0
   11.3550    5.6300    4.2660 C   0  0  0  0  0  2  0  0  0  0  0  0
   10.4820    5.3340    5.4970 C   0  0  0  0  0  2  0  0  0  0  0  0
   11.1760    5.5960    7.9350 C   0  0  0  0  0  1  0  0  0  0  0  0
   11.2230    4.7040    6.6920 C   0  0  0  0  0  3  0  0  0  0  0  0
   10.6070    3.3410    7.0230 C   0  0  0  0  0  1  0  0  0  0  0  0
  1 30  1  0  0  0  0
  2  1  1  0  0  0  0
  2  3  2  0  0  0  0
  4  2  1  0  0  0  0
  5  6  1  0  0  0  0
  5  4  2  0  0  0  0
  6 11  1  0  0  0  0
  7  8  1  0  0  0  0
  7  6  2  0  0  0  0
  8  9  2  0  0  0  0
  9 10  1  0  0  0  0
 11 10  2  0  0  0  0
 11  1  1  0  0  0  0
 12  4  1  6  0  0  0
 12 13  1  0  0  0  0
 13 24  1  0  0  0  0
 14 13  1  0  0  0  0
 14 15  2  0  0  0  0
 16 14  2  0  0  0  0
 17 14  1  0  0  0  0
 18 17  1  0  0  0  0
 19 18  2  0  0  0  0
 20 21  2  0  0  0  0
 20 19  1  0  0  0  0
 21 22  1  0  0  0  0
 22 23  1  0  0  0  0
 22 17  2  0  0  0  0
 23 12  1  0  0  0  0
 25 23  1  0  0  0  0
 26 19  1  0  0  0  0
 26 27  1  0  0  0  0
 28  5  1  0  0  0  0
 29 28  1  0  0  0  0
 30 31  1  0  0  0  0
 31 33  1  0  0  0  0
 33 34  1  0  0  0  0
 33 32  1  0  0  0  0
M  END
>  <minimizedAffinity>
-5.73339081

$$$$
