
 OpenBabel09122222393D

 34 37  0  0  1  0  0  0  0  0999 V2000
   10.0070    1.2050    0.4670 N   0  0  0  0  0  0  0  0  0  0  0  0
    9.4950    0.6130    1.6000 C   0  0  0  0  0  0  0  0  0  0  0  0
    9.0610    1.2490    2.5650 O   0  0  0  0  0  0  0  0  0  0  0  0
    9.4720   -0.8830    1.6930 C   0  0  0  0  0  0  0  0  0  0  0  0
    9.9590   -1.6000    0.6630 C   0  0  0  0  0  0  0  0  0  0  0  0
   10.4450   -0.9490   -0.5640 C   0  0  0  0  0  0  0  0  0  0  0  0
   10.8440   -1.6560   -1.7090 C   0  0  0  0  0  3  0  0  0  0  0  0
   11.3110   -0.9750   -2.8290 C   0  0  0  0  0  3  0  0  0  0  0  0
   11.3570    0.4020   -2.7790 C   0  0  0  0  0  3  0  0  0  0  0  0
   10.9560    1.1160   -1.7100 N   0  0  0  0  0  0  0  0  0  0  0  0
   10.4900    0.4470   -0.6280 C   0  0  0  0  0  0  0  0  0  0  0  0
    8.9100   -1.4900    2.9620 C   0  0  1  0  0  3  0  0  0  0  0  0
    9.4540   -1.2190    4.1230 N   0  0  0  0  0  0  0  0  0  0  0  0
    8.9860   -1.7780    5.5510 S   0  0  0  0  0  0  0  0  0  0  0  0
   10.0060   -2.6670    6.0740 O   0  0  0  0  0  0  0  0  0  0  0  0
    8.5130   -0.6760    6.3660 O   0  0  0  0  0  0  0  0  0  0  0  0
    7.5780   -2.7950    5.2680 C   0  0  0  0  0  0  0  0  0  0  0  0
    6.9420   -3.4010    6.3580 C   0  0  0  0  0  3  0  0  0  0  0  0
    5.8340   -4.1980    6.1140 C   0  0  0  0  0  0  0  0  0  0  0  0
    5.3690   -4.3890    4.8170 C   0  0  0  0  0  3  0  0  0  0  0  0
    6.0180   -3.7730    3.7430 C   0  0  0  0  0  3  0  0  0  0  0  0
    7.1360   -2.9640    3.9610 C   0  0  0  0  0  0  0  0  0  0  0  0
    7.7880   -2.3450    2.9010 N   0  0  0  0  0  0  0  0  0  0  0  0
   10.2540   -0.5940    4.1350 H   0  0  0  0  0  0  0  0  0  0  0  0
    7.4160   -2.4930    1.9610 H   0  0  0  0  0  0  0  0  0  0  0  0
    5.1640   -4.8200    7.1220 O   0  0  0  0  0  0  0  0  0  0  0  0
    5.5790   -4.6070    7.9750 H   0  0  0  0  0  0  0  0  0  0  0  0
   10.0440   -2.9840    0.7400 O   0  0  0  0  0  0  0  0  0  0  0  0
   10.7920   -3.2870    0.1930 H   0  0  0  0  0  0  0  0  0  0  0  0
   10.0360    2.6690    0.3610 C   0  0  0  0  0  2  0  0  0  0  0  0
   11.1610    3.3270    1.1780 C   0  0  0  0  0  2  0  0  0  0  0  0
    9.8930    5.4390    0.5230 C   0  0  0  0  0  1  0  0  0  0  0  0
   11.0460    4.8550    1.3430 C   0  0  0  0  0  3  0  0  0  0  0  0
   10.8450    5.2020    2.8210 C   0  0  0  0  0  1  0  0  0  0  0  0
  1  2  1  0  0  0  0
  2  4  1  0  0  0  0
  2  3  2  0  0  0  0
  5 28  1  0  0  0  0
  5  4  2  0  0  0  0
  6  5  1  0  0  0  0
  7  6  2  0  0  0  0
  8  9  2  0  0  0  0
  8  7  1  0  0  0  0
  9 10  1  0  0  0  0
 10 11  2  0  0  0  0
 11  6  1  0  0  0  0
 11  1  1  0  0  0  0
 12  4  1  1  0  0  0
 12 13  1  0  0  0  0
 13 24  1  0  0  0  0
 13 14  1  0  0  0  0
 14 15  2  0  0  0  0
 14 16  2  0  0  0  0
 17 14  1  0  0  0  0
 17 18  1  0  0  0  0
 19 18  2  0  0  0  0
 19 26  1  0  0  0  0
 20 19  1  0  0  0  0
 21 22  1  0  0  0  0
 21 20  2  0  0  0  0
 22 17  2  0  0  0  0
 23 12  1  0  0  0  0
 23 22  1  0  0  0  0
 25 23  1  0  0  0  0
 26 27  1  0  0  0  0
 29 28  1  0  0  0  0
 30  1  1  0  0  0  0
 30 31  1  0  0  0  0
 31 33  1  0  0  0  0
 32 33  1  0  0  0  0
 33 34  1  0  0  0  0
M  END
>  <minimizedAffinity>
-6.53625822

$$$$
