
 OpenBabel09122222393D

 34 37  0  0  1  0  0  0  0  0999 V2000
    9.8250   -1.0030    1.6090 N   0  0  0  0  0  0  0  0  0  0  0  0
    9.0220   -1.2840    2.6910 C   0  0  0  0  0  0  0  0  0  0  0  0
    8.7530   -0.4630    3.5730 O   0  0  0  0  0  0  0  0  0  0  0  0
    8.4460   -2.6610    2.8320 C   0  0  0  0  0  0  0  0  0  0  0  0
    8.7400   -3.5820    1.8950 C   0  0  0  0  0  0  0  0  0  0  0  0
    9.5510   -3.2430    0.7140 C   0  0  0  0  0  0  0  0  0  0  0  0
    9.7790   -4.1320   -0.3480 C   0  0  0  0  0  3  0  0  0  0  0  0
   10.5730   -3.7510   -1.4260 C   0  0  0  0  0  3  0  0  0  0  0  0
   11.1120   -2.4810   -1.4180 C   0  0  0  0  0  3  0  0  0  0  0  0
   10.8920   -1.5910   -0.4310 N   0  0  0  0  0  0  0  0  0  0  0  0
   10.1070   -1.9650    0.6080 C   0  0  0  0  0  0  0  0  0  0  0  0
    7.5770   -2.9280    4.0430 C   0  0  1  0  0  3  0  0  0  0  0  0
    7.9650   -2.5450    5.2340 N   0  0  0  0  0  0  0  0  0  0  0  0
    7.1700   -2.7520    6.6120 S   0  0  0  0  0  0  0  0  0  0  0  0
    7.8970   -3.6870    7.4480 O   0  0  0  0  0  0  0  0  0  0  0  0
    6.7930   -1.4580    7.1470 O   0  0  0  0  0  0  0  0  0  0  0  0
    5.6560   -3.5570    6.2140 C   0  0  0  0  0  0  0  0  0  0  0  0
    4.7450   -3.8440    7.2380 C   0  0  0  0  0  3  0  0  0  0  0  0
    3.5580   -4.4780    6.9040 C   0  0  0  0  0  0  0  0  0  0  0  0
    3.2840   -4.8220    5.5840 C   0  0  0  0  0  3  0  0  0  0  0  0
    4.2070   -4.5250    4.5770 C   0  0  0  0  0  3  0  0  0  0  0  0
    5.4100   -3.8850    4.8860 C   0  0  0  0  0  0  0  0  0  0  0  0
    6.3350   -3.5830    3.8930 N   0  0  0  0  0  0  0  0  0  0  0  0
    8.8590   -2.0680    5.3090 H   0  0  0  0  0  0  0  0  0  0  0  0
    6.1010   -3.8350    2.9310 H   0  0  0  0  0  0  0  0  0  0  0  0
    2.6240   -4.7890    7.8430 O   0  0  0  0  0  0  0  0  0  0  0  0
    2.9270   -4.4970    8.7200 H   0  0  0  0  0  0  0  0  0  0  0  0
    8.3070   -4.8940    2.0290 O   0  0  0  0  0  0  0  0  0  0  0  0
    8.9440   -5.4860    1.5880 H   0  0  0  0  0  0  0  0  0  0  0  0
   10.3960    0.3410    1.4560 C   0  0  0  0  0  2  0  0  0  0  0  0
    9.3850    1.3910    0.9660 C   0  0  0  0  0  2  0  0  0  0  0  0
   10.9020    2.9330    2.3140 C   0  0  0  0  0  1  0  0  0  0  0  0
    9.6900    2.8430    1.3840 C   0  0  0  0  0  3  0  0  0  0  0  0
    9.9430    3.6980    0.1390 C   0  0  0  0  0  1  0  0  0  0  0  0
  1  2  1  0  0  0  0
  2  4  1  0  0  0  0
  2  3  2  0  0  0  0
  5 28  1  0  0  0  0
  5  4  2  0  0  0  0
  6  5  1  0  0  0  0
  7  6  2  0  0  0  0
  8  9  2  0  0  0  0
  8  7  1  0  0  0  0
  9 10  1  0  0  0  0
 10 11  2  0  0  0  0
 11  6  1  0  0  0  0
 11  1  1  0  0  0  0
 12  4  1  6  0  0  0
 12 13  1  0  0  0  0
 13 24  1  0  0  0  0
 13 14  1  0  0  0  0
 14 16  2  0  0  0  0
 14 15  2  0  0  0  0
 17 14  1  0  0  0  0
 17 18  1  0  0  0  0
 19 18  2  0  0  0  0
 19 26  1  0  0  0  0
 20 19  1  0  0  0  0
 21 22  1  0  0  0  0
 21 20  2  0  0  0  0
 22 17  2  0  0  0  0
 23 12  1  0  0  0  0
 23 22  1  0  0  0  0
 25 23  1  0  0  0  0
 26 27  1  0  0  0  0
 29 28  1  0  0  0  0
 30  1  1  0  0  0  0
 31 33  1  0  0  0  0
 31 30  1  0  0  0  0
 33 32  1  0  0  0  0
 34 33  1  0  0  0  0
M  END
>  <minimizedAffinity>
-4.82796192

$$$$
