
 OpenBabel09122218203D

 29 31  0  0  0  0  0  0  0  0999 V2000
    6.4730   -5.2720    2.1010 C   0  0  0  0  0  0  0  0  0  0  0  0
    6.6460   -4.1680    2.8500 C   0  0  0  0  0  0  0  0  0  0  0  0
    7.7390   -3.3330    2.7480 N   0  0  0  0  0  0  0  0  0  0  0  0
    8.6070   -3.6010    1.8330 C   0  0  0  0  0  0  0  0  0  0  0  0
    8.5010   -4.6420    0.9710 N   0  0  0  0  0  0  0  0  0  0  0  0
    7.5020   -5.5620    1.0820 C   0  0  0  0  0  0  0  0  0  0  0  0
    7.4720   -6.5550    0.3650 O   0  0  0  0  0  0  0  0  0  0  0  0
    9.1900   -4.7860    0.2510 H   0  0  0  0  0  0  0  0  0  0  0  0
    5.5960   -3.7260    3.7940 C   0  0  0  0  0  0  0  0  0  0  0  0
    4.3190   -3.3520    3.3550 C   0  0  0  0  0  3  0  0  0  0  0  0
    3.3570   -2.9180    4.2740 C   0  0  0  0  0  3  0  0  0  0  0  0
    3.6690   -2.8650    5.6320 C   0  0  0  0  0  0  0  0  0  0  0  0
    2.3690   -2.2730    6.8710 Br  0  0  0  0  0  0  0  0  0  0  0  0
    4.9290   -3.2470    6.0840 C   0  0  0  0  0  3  0  0  0  0  0  0
    5.8890   -3.6800    5.1660 C   0  0  0  0  0  3  0  0  0  0  0  0
    4.2300   -6.9140    2.1890 N   0  0  0  0  0  1  0  0  0  0  0  0
    5.2470   -6.1690    2.1490 C   0  0  0  0  0  2  0  0  0  0  0  0
    9.9900   -2.5840    1.6040 S   0  0  0  0  0  0  0  0  0  0  0  0
   10.5590   -3.0300   -0.0540 C   0  0  0  0  0  2  0  0  0  0  0  0
   10.9310   -1.8790   -0.9640 C   0  0  0  0  0  0  0  0  0  0  0  0
   10.1810   -0.6880   -0.8560 C   0  0  0  0  0  3  0  0  0  0  0  0
   10.4380    0.4080   -1.6770 C   0  0  0  0  0  3  0  0  0  0  0  0
   11.4530    0.3410   -2.6190 C   0  0  0  0  0  3  0  0  0  0  0  0
   12.2210   -0.8180   -2.7310 C   0  0  0  0  0  3  0  0  0  0  0  0
   11.9890   -1.9360   -1.9020 C   0  0  0  0  0  0  0  0  0  0  0  0
   12.8850   -3.1480   -2.0780 C   0  0  0  0  0  0  0  0  0  0  0  0
   12.1930   -4.2750   -2.3870 F   0  0  0  0  0  0  0  0  0  0  0  0
   13.7960   -2.9890   -3.0820 F   0  0  0  0  0  0  0  0  0  0  0  0
   13.6240   -3.4390   -0.9730 F   0  0  0  0  0  0  0  0  0  0  0  0
  1 17  1  0  0  0  0
  1  2  2  0  0  0  0
  2  9  1  0  0  0  0
  3  2  1  0  0  0  0
  4  3  2  0  0  0  0
  5  6  1  0  0  0  0
  5  4  1  0  0  0  0
  6  1  1  0  0  0  0
  7  6  2  0  0  0  0
  8  5  1  0  0  0  0
  9 15  1  0  0  0  0
 10  9  2  0  0  0  0
 10 11  1  0  0  0  0
 11 12  2  0  0  0  0
 12 14  1  0  0  0  0
 12 13  1  0  0  0  0
 15 14  2  0  0  0  0
 17 16  1  0  0  0  0
 18  4  1  0  0  0  0
 19 18  1  0  0  0  0
 20 21  1  0  0  0  0
 20 19  1  0  0  0  0
 22 21  2  0  0  0  0
 23 22  1  0  0  0  0
 24 23  2  0  0  0  0
 24 25  1  0  0  0  0
 25 20  2  0  0  0  0
 26 25  1  0  0  0  0
 26 29  1  0  0  0  0
 27 26  1  0  0  0  0
 28 26  1  0  0  0  0
M  END
>  <minimizedAffinity>
-7.94491243

$$$$

 OpenBabel09122218203D

 29 31  0  0  0  0  0  0  0  0999 V2000
    6.4720   -5.2570    2.0850 C   0  0  0  0  0  0  0  0  0  0  0  0
    6.6710   -4.1640    2.8430 C   0  0  0  0  0  0  0  0  0  0  0  0
    7.7760   -3.3440    2.7340 N   0  0  0  0  0  0  0  0  0  0  0  0
    8.6260   -3.6160    1.8050 C   0  0  0  0  0  0  0  0  0  0  0  0
    8.4940   -4.6450    0.9330 N   0  0  0  0  0  0  0  0  0  0  0  0
    7.4820   -5.5520    1.0480 C   0  0  0  0  0  0  0  0  0  0  0  0
    7.4280   -6.5370    0.3220 O   0  0  0  0  0  0  0  0  0  0  0  0
    9.1710   -4.7920    0.2030 H   0  0  0  0  0  0  0  0  0  0  0  0
    5.6410   -3.7170    3.8050 C   0  0  0  0  0  0  0  0  0  0  0  0
    4.3430   -3.3820    3.3950 C   0  0  0  0  0  3  0  0  0  0  0  0
    3.4010   -2.9410    4.3300 C   0  0  0  0  0  3  0  0  0  0  0  0
    3.7520   -2.8420    5.6760 C   0  0  0  0  0  0  0  0  0  0  0  0
    2.4770   -2.2410    6.9370 Br  0  0  0  0  0  0  0  0  0  0  0  0
    5.0320   -3.1860    6.1000 C   0  0  0  0  0  3  0  0  0  0  0  0
    5.9740   -3.6260    5.1660 C   0  0  0  0  0  3  0  0  0  0  0  0
    4.2060   -6.8670    2.1860 N   0  0  0  0  0  1  0  0  0  0  0  0
    5.2330   -6.1370    2.1400 C   0  0  0  0  0  2  0  0  0  0  0  0
   10.0210   -2.6170    1.5670 S   0  0  0  0  0  0  0  0  0  0  0  0
    9.8210   -2.0270   -0.1320 C   0  0  0  0  0  2  0  0  0  0  0  0
   11.0220   -2.1890   -1.0390 C   0  0  0  0  0  0  0  0  0  0  0  0
   11.6840   -3.4360   -1.0370 C   0  0  0  0  0  3  0  0  0  0  0  0
   12.8160   -3.6580   -1.8180 C   0  0  0  0  0  3  0  0  0  0  0  0
   13.3080   -2.6410   -2.6230 C   0  0  0  0  0  3  0  0  0  0  0  0
   12.6600   -1.4070   -2.6560 C   0  0  0  0  0  3  0  0  0  0  0  0
   11.5050   -1.1630   -1.8840 C   0  0  0  0  0  0  0  0  0  0  0  0
   10.8520    0.2030   -1.9970 C   0  0  0  0  0  0  0  0  0  0  0  0
    9.6090    0.1500   -2.5410 F   0  0  0  0  0  0  0  0  0  0  0  0
   10.6970    0.8150   -0.7860 F   0  0  0  0  0  0  0  0  0  0  0  0
   11.5670    1.0840   -2.7490 F   0  0  0  0  0  0  0  0  0  0  0  0
  1 17  1  0  0  0  0
  1  2  2  0  0  0  0
  2  9  1  0  0  0  0
  3  2  1  0  0  0  0
  4  3  2  0  0  0  0
  5  6  1  0  0  0  0
  5  4  1  0  0  0  0
  6  1  1  0  0  0  0
  7  6  2  0  0  0  0
  8  5  1  0  0  0  0
  9 15  1  0  0  0  0
 10  9  2  0  0  0  0
 10 11  1  0  0  0  0
 11 12  2  0  0  0  0
 12 14  1  0  0  0  0
 12 13  1  0  0  0  0
 15 14  2  0  0  0  0
 17 16  1  0  0  0  0
 18  4  1  0  0  0  0
 19 18  1  0  0  0  0
 20 21  1  0  0  0  0
 20 19  1  0  0  0  0
 22 21  2  0  0  0  0
 23 22  1  0  0  0  0
 24 23  2  0  0  0  0
 24 25  1  0  0  0  0
 25 20  2  0  0  0  0
 26 25  1  0  0  0  0
 26 28  1  0  0  0  0
 27 26  1  0  0  0  0
 29 26  1  0  0  0  0
M  END
>  <minimizedAffinity>
-7.83659506

$$$$

 OpenBabel09122218203D

 29 31  0  0  0  0  0  0  0  0999 V2000
    6.5680   -5.5270    0.3290 C   0  0  0  0  0  0  0  0  0  0  0  0
    6.6240   -5.0390    1.5820 C   0  0  0  0  0  0  0  0  0  0  0  0
    7.6410   -4.2320    2.0480 N   0  0  0  0  0  0  0  0  0  0  0  0
    8.5510   -3.8790    1.2060 C   0  0  0  0  0  0  0  0  0  0  0  0
    8.5590   -4.2460   -0.0990 N   0  0  0  0  0  0  0  0  0  0  0  0
    7.6430   -5.1230   -0.6000 C   0  0  0  0  0  0  0  0  0  0  0  0
    7.7200   -5.5300   -1.7530 O   0  0  0  0  0  0  0  0  0  0  0  0
    9.2760   -3.9130   -0.7230 H   0  0  0  0  0  0  0  0  0  0  0  0
    5.5160   -5.2780    2.5320 C   0  0  0  0  0  0  0  0  0  0  0  0
    5.1590   -6.5690    2.9410 C   0  0  0  0  0  3  0  0  0  0  0  0
    4.0910   -6.7580    3.8240 C   0  0  0  0  0  3  0  0  0  0  0  0
    3.3840   -5.6570    4.3050 C   0  0  0  0  0  0  0  0  0  0  0  0
    1.9370   -5.9160    5.4940 Br  0  0  0  0  0  0  0  0  0  0  0  0
    3.7370   -4.3670    3.9190 C   0  0  0  0  0  3  0  0  0  0  0  0
    4.8040   -4.1780    3.0370 C   0  0  0  0  0  3  0  0  0  0  0  0
    4.4790   -7.0560   -0.6870 N   0  0  0  0  0  1  0  0  0  0  0  0
    5.4260   -6.3630   -0.2260 C   0  0  0  0  0  2  0  0  0  0  0  0
    9.8430   -2.8320    1.6910 S   0  0  0  0  0  0  0  0  0  0  0  0
   11.0550   -3.0310    0.3630 C   0  0  0  0  0  2  0  0  0  0  0  0
   11.1130   -1.9160   -0.6590 C   0  0  0  0  0  0  0  0  0  0  0  0
   10.2450   -0.8170   -0.4820 C   0  0  0  0  0  3  0  0  0  0  0  0
   10.2120    0.2350   -1.3940 C   0  0  0  0  0  3  0  0  0  0  0  0
   11.0500    0.2160   -2.5000 C   0  0  0  0  0  3  0  0  0  0  0  0
   11.9290   -0.8490   -2.6850 C   0  0  0  0  0  3  0  0  0  0  0  0
   11.9900   -1.9200   -1.7690 C   0  0  0  0  0  0  0  0  0  0  0  0
   12.9920   -3.0290   -2.0380 C   0  0  0  0  0  0  0  0  0  0  0  0
   13.8630   -3.2130   -1.0130 F   0  0  0  0  0  0  0  0  0  0  0  0
   12.3960   -4.2410   -2.2360 F   0  0  0  0  0  0  0  0  0  0  0  0
   13.7440   -2.8190   -3.1530 F   0  0  0  0  0  0  0  0  0  0  0  0
  1  2  2  0  0  0  0
  2  3  1  0  0  0  0
  2  9  1  0  0  0  0
  4 18  1  0  0  0  0
  4  3  2  0  0  0  0
  5  4  1  0  0  0  0
  6  5  1  0  0  0  0
  6  1  1  0  0  0  0
  7  6  2  0  0  0  0
  8  5  1  0  0  0  0
  9 10  2  0  0  0  0
  9 15  1  0  0  0  0
 10 11  1  0  0  0  0
 11 12  2  0  0  0  0
 12 13  1  0  0  0  0
 14 12  1  0  0  0  0
 15 14  2  0  0  0  0
 16 17  1  0  0  0  0
 17  1  1  0  0  0  0
 19 18  1  0  0  0  0
 20 21  1  0  0  0  0
 20 19  1  0  0  0  0
 22 21  2  0  0  0  0
 23 22  1  0  0  0  0
 24 23  2  0  0  0  0
 24 25  1  0  0  0  0
 25 20  2  0  0  0  0
 26 25  1  0  0  0  0
 26 27  1  0  0  0  0
 28 26  1  0  0  0  0
 29 26  1  0  0  0  0
M  END
>  <minimizedAffinity>
-7.73955917

$$$$

 OpenBabel09122218203D

 29 31  0  0  0  0  0  0  0  0999 V2000
    6.5180   -5.5490    0.3150 C   0  0  0  0  0  0  0  0  0  0  0  0
    6.5970   -5.0710    1.5700 C   0  0  0  0  0  0  0  0  0  0  0  0
    7.6260   -4.2730    2.0260 N   0  0  0  0  0  0  0  0  0  0  0  0
    8.5250   -3.9200    1.1720 C   0  0  0  0  0  0  0  0  0  0  0  0
    8.5100   -4.2770   -0.1350 N   0  0  0  0  0  0  0  0  0  0  0  0
    7.5810   -5.1440   -0.6280 C   0  0  0  0  0  0  0  0  0  0  0  0
    7.6360   -5.5430   -1.7850 O   0  0  0  0  0  0  0  0  0  0  0  0
    9.2190   -3.9440   -0.7690 H   0  0  0  0  0  0  0  0  0  0  0  0
    5.5030   -5.3090    2.5360 C   0  0  0  0  0  0  0  0  0  0  0  0
    5.2000   -6.5940    3.0080 C   0  0  0  0  0  3  0  0  0  0  0  0
    4.1440   -6.7850    3.9040 C   0  0  0  0  0  3  0  0  0  0  0  0
    3.3930   -5.6920    4.3360 C   0  0  0  0  0  0  0  0  0  0  0  0
    1.9620   -5.9540    5.5430 Br  0  0  0  0  0  0  0  0  0  0  0  0
    3.6910   -4.4080    3.8870 C   0  0  0  0  0  3  0  0  0  0  0  0
    4.7460   -4.2170    2.9920 C   0  0  0  0  0  3  0  0  0  0  0  0
    4.4030   -7.0560   -0.6800 N   0  0  0  0  0  1  0  0  0  0  0  0
    5.3620   -6.3730   -0.2290 C   0  0  0  0  0  2  0  0  0  0  0  0
    9.8310   -2.8850    1.6450 S   0  0  0  0  0  0  0  0  0  0  0  0
    9.9730   -1.7390    0.2520 C   0  0  0  0  0  2  0  0  0  0  0  0
   11.0870   -2.0230   -0.7340 C   0  0  0  0  0  0  0  0  0  0  0  0
   11.7800   -3.2460   -0.6070 C   0  0  0  0  0  3  0  0  0  0  0  0
   12.8390   -3.5710   -1.4520 C   0  0  0  0  0  3  0  0  0  0  0  0
   13.2230   -2.6840   -2.4470 C   0  0  0  0  0  3  0  0  0  0  0  0
   12.5410   -1.4790   -2.6040 C   0  0  0  0  0  3  0  0  0  0  0  0
   11.4580   -1.1330   -1.7690 C   0  0  0  0  0  0  0  0  0  0  0  0
   10.7600    0.1900   -2.0230 C   0  0  0  0  0  0  0  0  0  0  0  0
    9.5960    0.0490   -2.7100 F   0  0  0  0  0  0  0  0  0  0  0  0
   10.4290    0.8430   -0.8700 F   0  0  0  0  0  0  0  0  0  0  0  0
   11.5180    1.0760   -2.7250 F   0  0  0  0  0  0  0  0  0  0  0  0
  1  2  2  0  0  0  0
  2  3  1  0  0  0  0
  2  9  1  0  0  0  0
  4 18  1  0  0  0  0
  4  3  2  0  0  0  0
  5  4  1  0  0  0  0
  6  5  1  0  0  0  0
  6  1  1  0  0  0  0
  7  6  2  0  0  0  0
  8  5  1  0  0  0  0
  9 15  2  0  0  0  0
  9 10  1  0  0  0  0
 10 11  2  0  0  0  0
 11 12  1  0  0  0  0
 12 13  1  0  0  0  0
 14 12  2  0  0  0  0
 15 14  1  0  0  0  0
 16 17  1  0  0  0  0
 17  1  1  0  0  0  0
 19 18  1  0  0  0  0
 20 21  1  0  0  0  0
 20 19  1  0  0  0  0
 22 21  2  0  0  0  0
 23 22  1  0  0  0  0
 24 23  2  0  0  0  0
 24 25  1  0  0  0  0
 25 20  2  0  0  0  0
 26 25  1  0  0  0  0
 26 28  1  0  0  0  0
 27 26  1  0  0  0  0
 29 26  1  0  0  0  0
M  END
>  <minimizedAffinity>
-7.47040606

$$$$

 OpenBabel09122218203D

 29 31  0  0  0  0  0  0  0  0999 V2000
    8.9640   -3.6930    0.6900 C   0  0  0  0  0  0  0  0  0  0  0  0
    8.4400   -3.6140    1.9270 C   0  0  0  0  0  0  0  0  0  0  0  0
    7.3910   -4.3930    2.3690 N   0  0  0  0  0  0  0  0  0  0  0  0
    6.9360   -5.2880    1.5610 C   0  0  0  0  0  0  0  0  0  0  0  0
    7.4310   -5.5110    0.3190 N   0  0  0  0  0  0  0  0  0  0  0  0
    8.3980   -4.7130   -0.2160 C   0  0  0  0  0  0  0  0  0  0  0  0
    8.7670   -4.8550   -1.3760 O   0  0  0  0  0  0  0  0  0  0  0  0
    7.0620   -6.2480   -0.2590 H   0  0  0  0  0  0  0  0  0  0  0  0
    9.0400   -2.7220    2.9430 C   0  0  0  0  0  0  0  0  0  0  0  0
    9.6250   -3.2220    4.1140 C   0  0  0  0  0  3  0  0  0  0  0  0
   10.1620   -2.3470    5.0630 C   0  0  0  0  0  3  0  0  0  0  0  0
   10.1240   -0.9710    4.8390 C   0  0  0  0  0  0  0  0  0  0  0  0
   10.8460    0.2110    6.1260 Br  0  0  0  0  0  0  0  0  0  0  0  0
    9.5600   -0.4600    3.6730 C   0  0  0  0  0  3  0  0  0  0  0  0
    9.0220   -1.3350    2.7250 C   0  0  0  0  0  3  0  0  0  0  0  0
   11.1550   -2.2310   -0.2020 N   0  0  0  0  0  1  0  0  0  0  0  0
   10.1610   -2.8940    0.2020 C   0  0  0  0  0  2  0  0  0  0  0  0
    5.6470   -6.3390    2.0460 S   0  0  0  0  0  0  0  0  0  0  0  0
    4.3340   -5.1900    2.5210 C   0  0  0  0  0  2  0  0  0  0  0  0
    3.7020   -5.4240    3.8770 C   0  0  0  0  0  0  0  0  0  0  0  0
    3.6520   -6.7500    4.3590 C   0  0  0  0  0  3  0  0  0  0  0  0
    3.0600   -7.0560    5.5820 C   0  0  0  0  0  3  0  0  0  0  0  0
    2.5100   -6.0430    6.3540 C   0  0  0  0  0  3  0  0  0  0  0  0
    2.5640   -4.7230    5.9080 C   0  0  0  0  0  3  0  0  0  0  0  0
    3.1710   -4.3870    4.6790 C   0  0  0  0  0  0  0  0  0  0  0  0
    3.2030   -2.9230    4.2820 C   0  0  0  0  0  0  0  0  0  0  0  0
    4.0350   -2.6790    3.2360 F   0  0  0  0  0  0  0  0  0  0  0  0
    1.9800   -2.4540    3.8950 F   0  0  0  0  0  0  0  0  0  0  0  0
    3.5960   -2.0970    5.2890 F   0  0  0  0  0  0  0  0  0  0  0  0
  1  2  2  0  0  0  0
  2  3  1  0  0  0  0
  2  9  1  0  0  0  0
  4 18  1  0  0  0  0
  4  3  2  0  0  0  0
  5  4  1  0  0  0  0
  6  5  1  0  0  0  0
  6  1  1  0  0  0  0
  7  6  2  0  0  0  0
  8  5  1  0  0  0  0
  9 10  1  0  0  0  0
 10 11  2  0  0  0  0
 12 11  1  0  0  0  0
 12 13  1  0  0  0  0
 14 12  2  0  0  0  0
 15  9  2  0  0  0  0
 15 14  1  0  0  0  0
 16 17  1  0  0  0  0
 17  1  1  0  0  0  0
 18 19  1  0  0  0  0
 19 20  1  0  0  0  0
 20 21  2  0  0  0  0
 20 25  1  0  0  0  0
 21 22  1  0  0  0  0
 22 23  2  0  0  0  0
 24 23  1  0  0  0  0
 25 24  2  0  0  0  0
 26 25  1  0  0  0  0
 26 29  1  0  0  0  0
 27 26  1  0  0  0  0
 28 26  1  0  0  0  0
M  END
>  <minimizedAffinity>
-7.42144394

$$$$

 OpenBabel09122218203D

 29 31  0  0  0  0  0  0  0  0999 V2000
   10.5490    3.0610    2.9890 C   0  0  0  0  0  0  0  0  0  0  0  0
   10.5630    3.0110    1.6440 C   0  0  0  0  0  0  0  0  0  0  0  0
   10.2740    1.8770    0.9140 N   0  0  0  0  0  0  0  0  0  0  0  0
    9.9070    0.8280    1.5670 C   0  0  0  0  0  0  0  0  0  0  0  0
    9.7830    0.7810    2.9160 N   0  0  0  0  0  0  0  0  0  0  0  0
   10.1500    1.8310    3.7040 C   0  0  0  0  0  0  0  0  0  0  0  0
   10.1330    1.7440    4.9260 O   0  0  0  0  0  0  0  0  0  0  0  0
    9.4580   -0.0550    3.3750 H   0  0  0  0  0  0  0  0  0  0  0  0
   10.8120    4.2320    0.8490 C   0  0  0  0  0  0  0  0  0  0  0  0
   12.1060    4.6240    0.4820 C   0  0  0  0  0  3  0  0  0  0  0  0
   12.3050    5.7980   -0.2520 C   0  0  0  0  0  3  0  0  0  0  0  0
   11.2110    6.5780   -0.6260 C   0  0  0  0  0  0  0  0  0  0  0  0
   11.4840    8.1670   -1.6140 Br  0  0  0  0  0  0  0  0  0  0  0  0
    9.9190    6.1930   -0.2820 C   0  0  0  0  0  3  0  0  0  0  0  0
    9.7190    5.0200    0.4510 C   0  0  0  0  0  3  0  0  0  0  0  0
   11.0060    5.3520    4.4970 N   0  0  0  0  0  1  0  0  0  0  0  0
   10.7990    4.3130    3.8130 C   0  0  0  0  0  2  0  0  0  0  0  0
    9.4830   -0.6280    0.7320 S   0  0  0  0  0  0  0  0  0  0  0  0
   10.1110   -0.3410   -0.9410 C   0  0  0  0  0  2  0  0  0  0  0  0
   11.2390   -1.2440   -1.3930 C   0  0  0  0  0  0  0  0  0  0  0  0
   11.0800   -2.6350   -1.2110 C   0  0  0  0  0  3  0  0  0  0  0  0
   12.0830   -3.5330   -1.5710 C   0  0  0  0  0  3  0  0  0  0  0  0
   13.2630   -3.0620   -2.1260 C   0  0  0  0  0  3  0  0  0  0  0  0
   13.4350   -1.6940   -2.3340 C   0  0  0  0  0  3  0  0  0  0  0  0
   12.4290   -0.7670   -1.9900 C   0  0  0  0  0  0  0  0  0  0  0  0
   12.6920    0.7020   -2.2690 C   0  0  0  0  0  0  0  0  0  0  0  0
   13.8860    0.9170   -2.8810 F   0  0  0  0  0  0  0  0  0  0  0  0
   11.7540    1.2590   -3.0900 F   0  0  0  0  0  0  0  0  0  0  0  0
   12.6860    1.4750   -1.1490 F   0  0  0  0  0  0  0  0  0  0  0  0
  1  6  1  0  0  0  0
  1 17  1  0  0  0  0
  2  1  2  0  0  0  0
  3  4  2  0  0  0  0
  3  2  1  0  0  0  0
  4  5  1  0  0  0  0
  5  8  1  0  0  0  0
  5  6  1  0  0  0  0
  6  7  2  0  0  0  0
  9  2  1  0  0  0  0
 10  9  1  0  0  0  0
 11 10  2  0  0  0  0
 12 14  2  0  0  0  0
 12 11  1  0  0  0  0
 13 12  1  0  0  0  0
 14 15  1  0  0  0  0
 15  9  2  0  0  0  0
 17 16  1  0  0  0  0
 18  4  1  0  0  0  0
 19 18  1  0  0  0  0
 20 21  1  0  0  0  0
 20 19  1  0  0  0  0
 22 21  2  0  0  0  0
 23 22  1  0  0  0  0
 24 23  2  0  0  0  0
 24 25  1  0  0  0  0
 25 20  2  0  0  0  0
 26 25  1  0  0  0  0
 26 29  1  0  0  0  0
 27 26  1  0  0  0  0
 28 26  1  0  0  0  0
M  END
>  <minimizedAffinity>
-7.38909626

$$$$

 OpenBabel09122218203D

 29 31  0  0  0  0  0  0  0  0999 V2000
    6.4000   -5.2620    2.1910 C   0  0  0  0  0  0  0  0  0  0  0  0
    6.6380   -4.1670    2.9360 C   0  0  0  0  0  0  0  0  0  0  0  0
    7.7560   -3.3710    2.7970 N   0  0  0  0  0  0  0  0  0  0  0  0
    8.5800   -3.6660    1.8520 C   0  0  0  0  0  0  0  0  0  0  0  0
    8.4080   -4.6990    0.9910 N   0  0  0  0  0  0  0  0  0  0  0  0
    7.3810   -5.5840    1.1350 C   0  0  0  0  0  0  0  0  0  0  0  0
    7.2910   -6.5730    0.4180 O   0  0  0  0  0  0  0  0  0  0  0  0
    9.0660   -4.8650    0.2470 H   0  0  0  0  0  0  0  0  0  0  0  0
    5.6380   -3.6920    3.9170 C   0  0  0  0  0  0  0  0  0  0  0  0
    5.9310   -3.5970    5.2840 C   0  0  0  0  0  3  0  0  0  0  0  0
    4.9530   -3.1650    6.1860 C   0  0  0  0  0  3  0  0  0  0  0  0
    3.6840   -2.8210    5.7220 C   0  0  0  0  0  0  0  0  0  0  0  0
    2.3630   -2.2420    6.9440 Br  0  0  0  0  0  0  0  0  0  0  0  0
    3.3830   -2.8960    4.3650 C   0  0  0  0  0  3  0  0  0  0  0  0
    4.3600   -3.3280    3.4640 C   0  0  0  0  0  3  0  0  0  0  0  0
    4.1050   -6.8240    2.3540 N   0  0  0  0  0  1  0  0  0  0  0  0
    5.1450   -6.1160    2.2800 C   0  0  0  0  0  2  0  0  0  0  0  0
    9.9890   -2.6970    1.5760 S   0  0  0  0  0  0  0  0  0  0  0  0
    9.5280   -1.6970    0.1400 C   0  0  0  0  0  2  0  0  0  0  0  0
    9.8250   -0.2160    0.2360 C   0  0  0  0  0  0  0  0  0  0  0  0
    9.4210    0.4610    1.4080 C   0  0  0  0  0  3  0  0  0  0  0  0
    9.6280    1.8290    1.5620 C   0  0  0  0  0  3  0  0  0  0  0  0
   10.2500    2.5510    0.5540 C   0  0  0  0  0  3  0  0  0  0  0  0
   10.6750    1.9010   -0.6040 C   0  0  0  0  0  3  0  0  0  0  0  0
   10.4880    0.5140   -0.7780 C   0  0  0  0  0  0  0  0  0  0  0  0
   11.0000   -0.1160   -2.0610 C   0  0  0  0  0  0  0  0  0  0  0  0
   11.8430    0.6990   -2.7480 F   0  0  0  0  0  0  0  0  0  0  0  0
   11.7010   -1.2670   -1.8410 F   0  0  0  0  0  0  0  0  0  0  0  0
   10.0090   -0.4650   -2.9250 F   0  0  0  0  0  0  0  0  0  0  0  0
  1 17  1  0  0  0  0
  1  2  2  0  0  0  0
  2  9  1  0  0  0  0
  3  2  1  0  0  0  0
  4  3  2  0  0  0  0
  5  6  1  0  0  0  0
  5  4  1  0  0  0  0
  6  1  1  0  0  0  0
  7  6  2  0  0  0  0
  8  5  1  0  0  0  0
  9 10  1  0  0  0  0
 10 11  2  0  0  0  0
 12 11  1  0  0  0  0
 12 13  1  0  0  0  0
 14 12  2  0  0  0  0
 15  9  2  0  0  0  0
 15 14  1  0  0  0  0
 17 16  1  0  0  0  0
 18  4  1  0  0  0  0
 19 20  1  0  0  0  0
 19 18  1  0  0  0  0
 20 21  1  0  0  0  0
 21 22  2  0  0  0  0
 23 22  1  0  0  0  0
 24 23  2  0  0  0  0
 25 24  1  0  0  0  0
 25 20  2  0  0  0  0
 26 28  1  0  0  0  0
 26 25  1  0  0  0  0
 27 26  1  0  0  0  0
 29 26  1  0  0  0  0
M  END
>  <minimizedAffinity>
-7.26291943

$$$$

 OpenBabel09122218203D

 29 31  0  0  0  0  0  0  0  0999 V2000
   10.2220    2.4100    2.5160 C   0  0  0  0  0  0  0  0  0  0  0  0
   10.9810    3.1740    1.7100 C   0  0  0  0  0  0  0  0  0  0  0  0
   11.2800    2.8520    0.4020 N   0  0  0  0  0  0  0  0  0  0  0  0
   10.7410    1.7870   -0.0840 C   0  0  0  0  0  0  0  0  0  0  0  0
    9.9000    0.9800    0.6080 N   0  0  0  0  0  0  0  0  0  0  0  0
    9.6430    1.1830    1.9310 C   0  0  0  0  0  0  0  0  0  0  0  0
    8.9660    0.3900    2.5750 O   0  0  0  0  0  0  0  0  0  0  0  0
    9.4780    0.1780    0.1690 H   0  0  0  0  0  0  0  0  0  0  0  0
   11.4810    4.4880    2.1710 C   0  0  0  0  0  0  0  0  0  0  0  0
   12.7030    4.6190    2.8440 C   0  0  0  0  0  3  0  0  0  0  0  0
   13.1330    5.8740    3.2850 C   0  0  0  0  0  3  0  0  0  0  0  0
   12.3470    7.0010    3.0470 C   0  0  0  0  0  0  0  0  0  0  0  0
   12.9280    8.6960    3.6490 Br  0  0  0  0  0  0  0  0  0  0  0  0
   11.1370    6.8880    2.3670 C   0  0  0  0  0  3  0  0  0  0  0  0
   10.7070    5.6340    1.9260 C   0  0  0  0  0  3  0  0  0  0  0  0
    9.4950    3.0790    5.1160 N   0  0  0  0  0  1  0  0  0  0  0  0
    9.8250    2.7750    3.9370 C   0  0  0  0  0  2  0  0  0  0  0  0
   11.0250    1.3280   -1.7290 S   0  0  0  0  0  0  0  0  0  0  0  0
   10.4740   -0.3950   -1.7770 C   0  0  0  0  0  2  0  0  0  0  0  0
   11.5620   -1.4390   -1.9090 C   0  0  0  0  0  0  0  0  0  0  0  0
   12.6430   -1.1560   -2.7720 C   0  0  0  0  0  3  0  0  0  0  0  0
   13.6690   -2.0760   -2.9740 C   0  0  0  0  0  3  0  0  0  0  0  0
   13.6420   -3.2960   -2.3140 C   0  0  0  0  0  3  0  0  0  0  0  0
   12.5950   -3.5900   -1.4420 C   0  0  0  0  0  3  0  0  0  0  0  0
   11.5510   -2.6700   -1.2110 C   0  0  0  0  0  0  0  0  0  0  0  0
   10.4610   -3.0640   -0.2310 C   0  0  0  0  0  0  0  0  0  0  0  0
    9.2360   -3.1530   -0.8110 F   0  0  0  0  0  0  0  0  0  0  0  0
   10.6840   -4.2820    0.3440 F   0  0  0  0  0  0  0  0  0  0  0  0
   10.3330   -2.1990    0.8130 F   0  0  0  0  0  0  0  0  0  0  0  0
  1 17  1  0  0  0  0
  2  9  1  0  0  0  0
  2  1  2  0  0  0  0
  3  2  1  0  0  0  0
  4  3  2  0  0  0  0
  4  5  1  0  0  0  0
  5  6  1  0  0  0  0
  6  1  1  0  0  0  0
  6  7  2  0  0  0  0
  8  5  1  0  0  0  0
  9 10  1  0  0  0  0
 10 11  2  0  0  0  0
 12 11  1  0  0  0  0
 12 13  1  0  0  0  0
 14 12  2  0  0  0  0
 15  9  2  0  0  0  0
 15 14  1  0  0  0  0
 17 16  1  0  0  0  0
 18  4  1  0  0  0  0
 19 18  1  0  0  0  0
 20 19  1  0  0  0  0
 20 25  1  0  0  0  0
 21 20  2  0  0  0  0
 22 21  1  0  0  0  0
 22 23  2  0  0  0  0
 23 24  1  0  0  0  0
 24 25  2  0  0  0  0
 25 26  1  0  0  0  0
 26 28  1  0  0  0  0
 26 29  1  0  0  0  0
 27 26  1  0  0  0  0
M  END
>  <minimizedAffinity>
-7.23119354

$$$$

 OpenBabel09122218203D

 29 31  0  0  0  0  0  0  0  0999 V2000
    8.5160   -3.7360    1.1430 C   0  0  0  0  0  0  0  0  0  0  0  0
    9.5260   -2.8910    1.4190 C   0  0  0  0  0  0  0  0  0  0  0  0
    9.7030   -2.2760    2.6410 N   0  0  0  0  0  0  0  0  0  0  0  0
    8.8840   -2.5880    3.5860 C   0  0  0  0  0  0  0  0  0  0  0  0
    7.8740   -3.4820    3.4490 N   0  0  0  0  0  0  0  0  0  0  0  0
    7.5810   -4.0480    2.2440 C   0  0  0  0  0  0  0  0  0  0  0  0
    6.6030   -4.7740    2.1050 O   0  0  0  0  0  0  0  0  0  0  0  0
    7.2840   -3.7160    4.2300 H   0  0  0  0  0  0  0  0  0  0  0  0
   10.5860   -2.6350    0.4200 C   0  0  0  0  0  0  0  0  0  0  0  0
   10.4660   -1.6250   -0.5440 C   0  0  0  0  0  3  0  0  0  0  0  0
   11.4780   -1.4270   -1.4880 C   0  0  0  0  0  3  0  0  0  0  0  0
   12.6170   -2.2320   -1.4640 C   0  0  0  0  0  0  0  0  0  0  0  0
   13.9830   -1.9660   -2.7440 Br  0  0  0  0  0  0  0  0  0  0  0  0
   12.7570   -3.2300   -0.5040 C   0  0  0  0  0  3  0  0  0  0  0  0
   11.7450   -3.4280    0.4390 C   0  0  0  0  0  3  0  0  0  0  0  0
    8.1890   -5.0880   -1.2640 N   0  0  0  0  0  1  0  0  0  0  0  0
    8.3370   -4.4750   -0.1730 C   0  0  0  0  0  2  0  0  0  0  0  0
    9.0550   -1.8980    5.1650 S   0  0  0  0  0  0  0  0  0  0  0  0
    7.8810   -2.8490    6.1600 C   0  0  0  0  0  2  0  0  0  0  0  0
    6.8320   -2.0470    6.9000 C   0  0  0  0  0  0  0  0  0  0  0  0
    7.2720   -0.9710    7.7010 C   0  0  0  0  0  3  0  0  0  0  0  0
    6.3750   -0.2030    8.4400 C   0  0  0  0  0  3  0  0  0  0  0  0
    5.0180   -0.4880    8.3900 C   0  0  0  0  0  3  0  0  0  0  0  0
    4.5580   -1.5330    7.5900 C   0  0  0  0  0  3  0  0  0  0  0  0
    5.4450   -2.3170    6.8230 C   0  0  0  0  0  0  0  0  0  0  0  0
    4.8560   -3.4220    5.9650 C   0  0  0  0  0  0  0  0  0  0  0  0
    5.3910   -4.6410    6.2350 F   0  0  0  0  0  0  0  0  0  0  0  0
    3.5100   -3.5650    6.1410 F   0  0  0  0  0  0  0  0  0  0  0  0
    5.0180   -3.2140    4.6300 F   0  0  0  0  0  0  0  0  0  0  0  0
  1  2  2  0  0  0  0
  1  6  1  0  0  0  0
  2  3  1  0  0  0  0
  3  4  2  0  0  0  0
  4 18  1  0  0  0  0
  5  4  1  0  0  0  0
  5  8  1  0  0  0  0
  6  5  1  0  0  0  0
  7  6  2  0  0  0  0
  9 15  1  0  0  0  0
  9  2  1  0  0  0  0
 10  9  2  0  0  0  0
 11 12  2  0  0  0  0
 11 10  1  0  0  0  0
 12 14  1  0  0  0  0
 13 12  1  0  0  0  0
 14 15  2  0  0  0  0
 16 17  1  0  0  0  0
 17  1  1  0  0  0  0
 18 19  1  0  0  0  0
 19 20  1  0  0  0  0
 20 21  1  0  0  0  0
 21 22  2  0  0  0  0
 23 22  1  0  0  0  0
 24 23  2  0  0  0  0
 25 20  2  0  0  0  0
 25 24  1  0  0  0  0
 26 28  1  0  0  0  0
 26 27  1  0  0  0  0
 26 25  1  0  0  0  0
 29 26  1  0  0  0  0
M  END
>  <minimizedAffinity>
-7.16844845

$$$$

 OpenBabel09122218203D

 29 31  0  0  0  0  0  0  0  0999 V2000
    7.8340   -3.1580    4.2160 C   0  0  0  0  0  0  0  0  0  0  0  0
    9.0060   -2.6210    3.8280 C   0  0  0  0  0  0  0  0  0  0  0  0
    9.5490   -2.7880    2.5710 N   0  0  0  0  0  0  0  0  0  0  0  0
    8.8540   -3.4440    1.7070 C   0  0  0  0  0  0  0  0  0  0  0  0
    7.6290   -3.9670    1.9590 N   0  0  0  0  0  0  0  0  0  0  0  0
    7.0790   -3.9270    3.2060 C   0  0  0  0  0  0  0  0  0  0  0  0
    6.0200   -4.4920    3.4500 O   0  0  0  0  0  0  0  0  0  0  0  0
    7.1130   -4.4420    1.2370 H   0  0  0  0  0  0  0  0  0  0  0  0
    9.7560   -1.7210    4.7300 C   0  0  0  0  0  0  0  0  0  0  0  0
   10.4200   -2.1990    5.8670 C   0  0  0  0  0  3  0  0  0  0  0  0
   11.1000   -1.3150    6.7100 C   0  0  0  0  0  3  0  0  0  0  0  0
   11.1250    0.0480    6.4140 C   0  0  0  0  0  0  0  0  0  0  0  0
   12.0410    1.2420    7.5570 Br  0  0  0  0  0  0  0  0  0  0  0  0
   10.4820    0.5350    5.2790 C   0  0  0  0  0  3  0  0  0  0  0  0
    9.8020   -0.3480    4.4370 C   0  0  0  0  0  3  0  0  0  0  0  0
    6.6450   -2.7490    6.6960 N   0  0  0  0  0  1  0  0  0  0  0  0
    7.1840   -2.9350    5.5720 C   0  0  0  0  0  2  0  0  0  0  0  0
    9.4380   -3.6670    0.0920 S   0  0  0  0  0  0  0  0  0  0  0  0
   10.1990   -2.0720   -0.2950 C   0  0  0  0  0  2  0  0  0  0  0  0
   11.4100   -2.1140   -1.2030 C   0  0  0  0  0  0  0  0  0  0  0  0
   12.1420   -3.3200   -1.2660 C   0  0  0  0  0  3  0  0  0  0  0  0
   13.2870   -3.4320   -2.0520 C   0  0  0  0  0  3  0  0  0  0  0  0
   13.7220   -2.3460   -2.7960 C   0  0  0  0  0  3  0  0  0  0  0  0
   13.0050   -1.1510   -2.7650 C   0  0  0  0  0  3  0  0  0  0  0  0
   11.8350   -1.0160   -1.9880 C   0  0  0  0  0  0  0  0  0  0  0  0
   11.1050    0.3140   -2.0280 C   0  0  0  0  0  0  0  0  0  0  0  0
   11.0280    0.9100   -0.8100 F   0  0  0  0  0  0  0  0  0  0  0  0
   11.7130    1.2240   -2.8440 F   0  0  0  0  0  0  0  0  0  0  0  0
    9.8300    0.2170   -2.4940 F   0  0  0  0  0  0  0  0  0  0  0  0
  1 17  1  0  0  0  0
  2  1  2  0  0  0  0
  2  9  1  0  0  0  0
  3  2  1  0  0  0  0
  4  5  1  0  0  0  0
  4  3  2  0  0  0  0
  5  6  1  0  0  0  0
  6  7  2  0  0  0  0
  6  1  1  0  0  0  0
  8  5  1  0  0  0  0
  9 10  1  0  0  0  0
 10 11  2  0  0  0  0
 12 11  1  0  0  0  0
 12 13  1  0  0  0  0
 14 12  2  0  0  0  0
 15  9  2  0  0  0  0
 15 14  1  0  0  0  0
 17 16  1  0  0  0  0
 18  4  1  0  0  0  0
 19 18  1  0  0  0  0
 20 19  1  0  0  0  0
 21 20  1  0  0  0  0
 22 21  2  0  0  0  0
 23 24  2  0  0  0  0
 23 22  1  0  0  0  0
 24 25  1  0  0  0  0
 25 20  2  0  0  0  0
 26 25  1  0  0  0  0
 26 27  1  0  0  0  0
 28 26  1  0  0  0  0
 29 26  1  0  0  0  0
M  END
>  <minimizedAffinity>
-7.14345264

$$$$
