
 OpenBabel09122222393D

 29 31  0  0  0  0  0  0  0  0999 V2000
    6.5180   -5.5490    0.3150 C   0  0  0  0  0  0  0  0  0  0  0  0
    6.5970   -5.0710    1.5700 C   0  0  0  0  0  0  0  0  0  0  0  0
    7.6260   -4.2730    2.0260 N   0  0  0  0  0  0  0  0  0  0  0  0
    8.5250   -3.9200    1.1720 C   0  0  0  0  0  0  0  0  0  0  0  0
    8.5100   -4.2770   -0.1350 N   0  0  0  0  0  0  0  0  0  0  0  0
    7.5810   -5.1440   -0.6280 C   0  0  0  0  0  0  0  0  0  0  0  0
    7.6360   -5.5430   -1.7850 O   0  0  0  0  0  0  0  0  0  0  0  0
    9.2190   -3.9440   -0.7690 H   0  0  0  0  0  0  0  0  0  0  0  0
    5.5030   -5.3090    2.5360 C   0  0  0  0  0  0  0  0  0  0  0  0
    5.2000   -6.5940    3.0080 C   0  0  0  0  0  3  0  0  0  0  0  0
    4.1440   -6.7850    3.9040 C   0  0  0  0  0  3  0  0  0  0  0  0
    3.3930   -5.6920    4.3360 C   0  0  0  0  0  0  0  0  0  0  0  0
    1.9620   -5.9540    5.5430 Br  0  0  0  0  0  0  0  0  0  0  0  0
    3.6910   -4.4080    3.8870 C   0  0  0  0  0  3  0  0  0  0  0  0
    4.7460   -4.2170    2.9920 C   0  0  0  0  0  3  0  0  0  0  0  0
    4.4030   -7.0560   -0.6800 N   0  0  0  0  0  1  0  0  0  0  0  0
    5.3620   -6.3730   -0.2290 C   0  0  0  0  0  2  0  0  0  0  0  0
    9.8310   -2.8850    1.6450 S   0  0  0  0  0  0  0  0  0  0  0  0
    9.9730   -1.7390    0.2520 C   0  0  0  0  0  2  0  0  0  0  0  0
   11.0870   -2.0230   -0.7340 C   0  0  0  0  0  0  0  0  0  0  0  0
   11.7800   -3.2460   -0.6070 C   0  0  0  0  0  3  0  0  0  0  0  0
   12.8390   -3.5710   -1.4520 C   0  0  0  0  0  3  0  0  0  0  0  0
   13.2230   -2.6840   -2.4470 C   0  0  0  0  0  3  0  0  0  0  0  0
   12.5410   -1.4790   -2.6040 C   0  0  0  0  0  3  0  0  0  0  0  0
   11.4580   -1.1330   -1.7690 C   0  0  0  0  0  0  0  0  0  0  0  0
   10.7600    0.1900   -2.0230 C   0  0  0  0  0  0  0  0  0  0  0  0
    9.5960    0.0490   -2.7100 F   0  0  0  0  0  0  0  0  0  0  0  0
   10.4290    0.8430   -0.8700 F   0  0  0  0  0  0  0  0  0  0  0  0
   11.5180    1.0760   -2.7250 F   0  0  0  0  0  0  0  0  0  0  0  0
  1  2  2  0  0  0  0
  2  3  1  0  0  0  0
  2  9  1  0  0  0  0
  4 18  1  0  0  0  0
  4  3  2  0  0  0  0
  5  4  1  0  0  0  0
  6  5  1  0  0  0  0
  6  1  1  0  0  0  0
  7  6  2  0  0  0  0
  8  5  1  0  0  0  0
  9 15  2  0  0  0  0
  9 10  1  0  0  0  0
 10 11  2  0  0  0  0
 11 12  1  0  0  0  0
 12 13  1  0  0  0  0
 14 12  2  0  0  0  0
 15 14  1  0  0  0  0
 16 17  1  0  0  0  0
 17  1  1  0  0  0  0
 19 18  1  0  0  0  0
 20 21  1  0  0  0  0
 20 19  1  0  0  0  0
 22 21  2  0  0  0  0
 23 22  1  0  0  0  0
 24 23  2  0  0  0  0
 24 25  1  0  0  0  0
 25 20  2  0  0  0  0
 26 25  1  0  0  0  0
 26 28  1  0  0  0  0
 27 26  1  0  0  0  0
 29 26  1  0  0  0  0
M  END
>  <minimizedAffinity>
-7.47040606

$$$$
