
 OpenBabel09122222393D

 29 31  0  0  0  0  0  0  0  0999 V2000
    6.5680   -5.5270    0.3290 C   0  0  0  0  0  0  0  0  0  0  0  0
    6.6240   -5.0390    1.5820 C   0  0  0  0  0  0  0  0  0  0  0  0
    7.6410   -4.2320    2.0480 N   0  0  0  0  0  0  0  0  0  0  0  0
    8.5510   -3.8790    1.2060 C   0  0  0  0  0  0  0  0  0  0  0  0
    8.5590   -4.2460   -0.0990 N   0  0  0  0  0  0  0  0  0  0  0  0
    7.6430   -5.1230   -0.6000 C   0  0  0  0  0  0  0  0  0  0  0  0
    7.7200   -5.5300   -1.7530 O   0  0  0  0  0  0  0  0  0  0  0  0
    9.2760   -3.9130   -0.7230 H   0  0  0  0  0  0  0  0  0  0  0  0
    5.5160   -5.2780    2.5320 C   0  0  0  0  0  0  0  0  0  0  0  0
    5.1590   -6.5690    2.9410 C   0  0  0  0  0  3  0  0  0  0  0  0
    4.0910   -6.7580    3.8240 C   0  0  0  0  0  3  0  0  0  0  0  0
    3.3840   -5.6570    4.3050 C   0  0  0  0  0  0  0  0  0  0  0  0
    1.9370   -5.9160    5.4940 Br  0  0  0  0  0  0  0  0  0  0  0  0
    3.7370   -4.3670    3.9190 C   0  0  0  0  0  3  0  0  0  0  0  0
    4.8040   -4.1780    3.0370 C   0  0  0  0  0  3  0  0  0  0  0  0
    4.4790   -7.0560   -0.6870 N   0  0  0  0  0  1  0  0  0  0  0  0
    5.4260   -6.3630   -0.2260 C   0  0  0  0  0  2  0  0  0  0  0  0
    9.8430   -2.8320    1.6910 S   0  0  0  0  0  0  0  0  0  0  0  0
   11.0550   -3.0310    0.3630 C   0  0  0  0  0  2  0  0  0  0  0  0
   11.1130   -1.9160   -0.6590 C   0  0  0  0  0  0  0  0  0  0  0  0
   10.2450   -0.8170   -0.4820 C   0  0  0  0  0  3  0  0  0  0  0  0
   10.2120    0.2350   -1.3940 C   0  0  0  0  0  3  0  0  0  0  0  0
   11.0500    0.2160   -2.5000 C   0  0  0  0  0  3  0  0  0  0  0  0
   11.9290   -0.8490   -2.6850 C   0  0  0  0  0  3  0  0  0  0  0  0
   11.9900   -1.9200   -1.7690 C   0  0  0  0  0  0  0  0  0  0  0  0
   12.9920   -3.0290   -2.0380 C   0  0  0  0  0  0  0  0  0  0  0  0
   13.8630   -3.2130   -1.0130 F   0  0  0  0  0  0  0  0  0  0  0  0
   12.3960   -4.2410   -2.2360 F   0  0  0  0  0  0  0  0  0  0  0  0
   13.7440   -2.8190   -3.1530 F   0  0  0  0  0  0  0  0  0  0  0  0
  1  2  2  0  0  0  0
  2  3  1  0  0  0  0
  2  9  1  0  0  0  0
  4 18  1  0  0  0  0
  4  3  2  0  0  0  0
  5  4  1  0  0  0  0
  6  5  1  0  0  0  0
  6  1  1  0  0  0  0
  7  6  2  0  0  0  0
  8  5  1  0  0  0  0
  9 10  2  0  0  0  0
  9 15  1  0  0  0  0
 10 11  1  0  0  0  0
 11 12  2  0  0  0  0
 12 13  1  0  0  0  0
 14 12  1  0  0  0  0
 15 14  2  0  0  0  0
 16 17  1  0  0  0  0
 17  1  1  0  0  0  0
 19 18  1  0  0  0  0
 20 21  1  0  0  0  0
 20 19  1  0  0  0  0
 22 21  2  0  0  0  0
 23 22  1  0  0  0  0
 24 23  2  0  0  0  0
 24 25  1  0  0  0  0
 25 20  2  0  0  0  0
 26 25  1  0  0  0  0
 26 27  1  0  0  0  0
 28 26  1  0  0  0  0
 29 26  1  0  0  0  0
M  END
>  <minimizedAffinity>
-7.73955917

$$$$
