
 OpenBabel09122222393D

 29 31  0  0  0  0  0  0  0  0999 V2000
    7.8340   -3.1580    4.2160 C   0  0  0  0  0  0  0  0  0  0  0  0
    9.0060   -2.6210    3.8280 C   0  0  0  0  0  0  0  0  0  0  0  0
    9.5490   -2.7880    2.5710 N   0  0  0  0  0  0  0  0  0  0  0  0
    8.8540   -3.4440    1.7070 C   0  0  0  0  0  0  0  0  0  0  0  0
    7.6290   -3.9670    1.9590 N   0  0  0  0  0  0  0  0  0  0  0  0
    7.0790   -3.9270    3.2060 C   0  0  0  0  0  0  0  0  0  0  0  0
    6.0200   -4.4920    3.4500 O   0  0  0  0  0  0  0  0  0  0  0  0
    7.1130   -4.4420    1.2370 H   0  0  0  0  0  0  0  0  0  0  0  0
    9.7560   -1.7210    4.7300 C   0  0  0  0  0  0  0  0  0  0  0  0
   10.4200   -2.1990    5.8670 C   0  0  0  0  0  3  0  0  0  0  0  0
   11.1000   -1.3150    6.7100 C   0  0  0  0  0  3  0  0  0  0  0  0
   11.1250    0.0480    6.4140 C   0  0  0  0  0  0  0  0  0  0  0  0
   12.0410    1.2420    7.5570 Br  0  0  0  0  0  0  0  0  0  0  0  0
   10.4820    0.5350    5.2790 C   0  0  0  0  0  3  0  0  0  0  0  0
    9.8020   -0.3480    4.4370 C   0  0  0  0  0  3  0  0  0  0  0  0
    6.6450   -2.7490    6.6960 N   0  0  0  0  0  1  0  0  0  0  0  0
    7.1840   -2.9350    5.5720 C   0  0  0  0  0  2  0  0  0  0  0  0
    9.4380   -3.6670    0.0920 S   0  0  0  0  0  0  0  0  0  0  0  0
   10.1990   -2.0720   -0.2950 C   0  0  0  0  0  2  0  0  0  0  0  0
   11.4100   -2.1140   -1.2030 C   0  0  0  0  0  0  0  0  0  0  0  0
   12.1420   -3.3200   -1.2660 C   0  0  0  0  0  3  0  0  0  0  0  0
   13.2870   -3.4320   -2.0520 C   0  0  0  0  0  3  0  0  0  0  0  0
   13.7220   -2.3460   -2.7960 C   0  0  0  0  0  3  0  0  0  0  0  0
   13.0050   -1.1510   -2.7650 C   0  0  0  0  0  3  0  0  0  0  0  0
   11.8350   -1.0160   -1.9880 C   0  0  0  0  0  0  0  0  0  0  0  0
   11.1050    0.3140   -2.0280 C   0  0  0  0  0  0  0  0  0  0  0  0
   11.0280    0.9100   -0.8100 F   0  0  0  0  0  0  0  0  0  0  0  0
   11.7130    1.2240   -2.8440 F   0  0  0  0  0  0  0  0  0  0  0  0
    9.8300    0.2170   -2.4940 F   0  0  0  0  0  0  0  0  0  0  0  0
  1 17  1  0  0  0  0
  2  1  2  0  0  0  0
  2  9  1  0  0  0  0
  3  2  1  0  0  0  0
  4  5  1  0  0  0  0
  4  3  2  0  0  0  0
  5  6  1  0  0  0  0
  6  7  2  0  0  0  0
  6  1  1  0  0  0  0
  8  5  1  0  0  0  0
  9 10  1  0  0  0  0
 10 11  2  0  0  0  0
 12 11  1  0  0  0  0
 12 13  1  0  0  0  0
 14 12  2  0  0  0  0
 15  9  2  0  0  0  0
 15 14  1  0  0  0  0
 17 16  1  0  0  0  0
 18  4  1  0  0  0  0
 19 18  1  0  0  0  0
 20 19  1  0  0  0  0
 21 20  1  0  0  0  0
 22 21  2  0  0  0  0
 23 24  2  0  0  0  0
 23 22  1  0  0  0  0
 24 25  1  0  0  0  0
 25 20  2  0  0  0  0
 26 25  1  0  0  0  0
 26 27  1  0  0  0  0
 28 26  1  0  0  0  0
 29 26  1  0  0  0  0
M  END
>  <minimizedAffinity>
-7.14345264

$$$$
