
 OpenBabel09122222393D

 29 31  0  0  0  0  0  0  0  0999 V2000
    6.4730   -5.2720    2.1010 C   0  0  0  0  0  0  0  0  0  0  0  0
    6.6460   -4.1680    2.8500 C   0  0  0  0  0  0  0  0  0  0  0  0
    7.7390   -3.3330    2.7480 N   0  0  0  0  0  0  0  0  0  0  0  0
    8.6070   -3.6010    1.8330 C   0  0  0  0  0  0  0  0  0  0  0  0
    8.5010   -4.6420    0.9710 N   0  0  0  0  0  0  0  0  0  0  0  0
    7.5020   -5.5620    1.0820 C   0  0  0  0  0  0  0  0  0  0  0  0
    7.4720   -6.5550    0.3650 O   0  0  0  0  0  0  0  0  0  0  0  0
    9.1900   -4.7860    0.2510 H   0  0  0  0  0  0  0  0  0  0  0  0
    5.5960   -3.7260    3.7940 C   0  0  0  0  0  0  0  0  0  0  0  0
    4.3190   -3.3520    3.3550 C   0  0  0  0  0  3  0  0  0  0  0  0
    3.3570   -2.9180    4.2740 C   0  0  0  0  0  3  0  0  0  0  0  0
    3.6690   -2.8650    5.6320 C   0  0  0  0  0  0  0  0  0  0  0  0
    2.3690   -2.2730    6.8710 Br  0  0  0  0  0  0  0  0  0  0  0  0
    4.9290   -3.2470    6.0840 C   0  0  0  0  0  3  0  0  0  0  0  0
    5.8890   -3.6800    5.1660 C   0  0  0  0  0  3  0  0  0  0  0  0
    4.2300   -6.9140    2.1890 N   0  0  0  0  0  1  0  0  0  0  0  0
    5.2470   -6.1690    2.1490 C   0  0  0  0  0  2  0  0  0  0  0  0
    9.9900   -2.5840    1.6040 S   0  0  0  0  0  0  0  0  0  0  0  0
   10.5590   -3.0300   -0.0540 C   0  0  0  0  0  2  0  0  0  0  0  0
   10.9310   -1.8790   -0.9640 C   0  0  0  0  0  0  0  0  0  0  0  0
   10.1810   -0.6880   -0.8560 C   0  0  0  0  0  3  0  0  0  0  0  0
   10.4380    0.4080   -1.6770 C   0  0  0  0  0  3  0  0  0  0  0  0
   11.4530    0.3410   -2.6190 C   0  0  0  0  0  3  0  0  0  0  0  0
   12.2210   -0.8180   -2.7310 C   0  0  0  0  0  3  0  0  0  0  0  0
   11.9890   -1.9360   -1.9020 C   0  0  0  0  0  0  0  0  0  0  0  0
   12.8850   -3.1480   -2.0780 C   0  0  0  0  0  0  0  0  0  0  0  0
   12.1930   -4.2750   -2.3870 F   0  0  0  0  0  0  0  0  0  0  0  0
   13.7960   -2.9890   -3.0820 F   0  0  0  0  0  0  0  0  0  0  0  0
   13.6240   -3.4390   -0.9730 F   0  0  0  0  0  0  0  0  0  0  0  0
  1 17  1  0  0  0  0
  1  2  2  0  0  0  0
  2  9  1  0  0  0  0
  3  2  1  0  0  0  0
  4  3  2  0  0  0  0
  5  6  1  0  0  0  0
  5  4  1  0  0  0  0
  6  1  1  0  0  0  0
  7  6  2  0  0  0  0
  8  5  1  0  0  0  0
  9 15  1  0  0  0  0
 10  9  2  0  0  0  0
 10 11  1  0  0  0  0
 11 12  2  0  0  0  0
 12 14  1  0  0  0  0
 12 13  1  0  0  0  0
 15 14  2  0  0  0  0
 17 16  1  0  0  0  0
 18  4  1  0  0  0  0
 19 18  1  0  0  0  0
 20 21  1  0  0  0  0
 20 19  1  0  0  0  0
 22 21  2  0  0  0  0
 23 22  1  0  0  0  0
 24 23  2  0  0  0  0
 24 25  1  0  0  0  0
 25 20  2  0  0  0  0
 26 25  1  0  0  0  0
 26 29  1  0  0  0  0
 27 26  1  0  0  0  0
 28 26  1  0  0  0  0
M  END
>  <minimizedAffinity>
-7.94491243

$$$$
