
 OpenBabel09122222393D

 29 31  0  0  0  0  0  0  0  0999 V2000
   10.5490    3.0610    2.9890 C   0  0  0  0  0  0  0  0  0  0  0  0
   10.5630    3.0110    1.6440 C   0  0  0  0  0  0  0  0  0  0  0  0
   10.2740    1.8770    0.9140 N   0  0  0  0  0  0  0  0  0  0  0  0
    9.9070    0.8280    1.5670 C   0  0  0  0  0  0  0  0  0  0  0  0
    9.7830    0.7810    2.9160 N   0  0  0  0  0  0  0  0  0  0  0  0
   10.1500    1.8310    3.7040 C   0  0  0  0  0  0  0  0  0  0  0  0
   10.1330    1.7440    4.9260 O   0  0  0  0  0  0  0  0  0  0  0  0
    9.4580   -0.0550    3.3750 H   0  0  0  0  0  0  0  0  0  0  0  0
   10.8120    4.2320    0.8490 C   0  0  0  0  0  0  0  0  0  0  0  0
   12.1060    4.6240    0.4820 C   0  0  0  0  0  3  0  0  0  0  0  0
   12.3050    5.7980   -0.2520 C   0  0  0  0  0  3  0  0  0  0  0  0
   11.2110    6.5780   -0.6260 C   0  0  0  0  0  0  0  0  0  0  0  0
   11.4840    8.1670   -1.6140 Br  0  0  0  0  0  0  0  0  0  0  0  0
    9.9190    6.1930   -0.2820 C   0  0  0  0  0  3  0  0  0  0  0  0
    9.7190    5.0200    0.4510 C   0  0  0  0  0  3  0  0  0  0  0  0
   11.0060    5.3520    4.4970 N   0  0  0  0  0  1  0  0  0  0  0  0
   10.7990    4.3130    3.8130 C   0  0  0  0  0  2  0  0  0  0  0  0
    9.4830   -0.6280    0.7320 S   0  0  0  0  0  0  0  0  0  0  0  0
   10.1110   -0.3410   -0.9410 C   0  0  0  0  0  2  0  0  0  0  0  0
   11.2390   -1.2440   -1.3930 C   0  0  0  0  0  0  0  0  0  0  0  0
   11.0800   -2.6350   -1.2110 C   0  0  0  0  0  3  0  0  0  0  0  0
   12.0830   -3.5330   -1.5710 C   0  0  0  0  0  3  0  0  0  0  0  0
   13.2630   -3.0620   -2.1260 C   0  0  0  0  0  3  0  0  0  0  0  0
   13.4350   -1.6940   -2.3340 C   0  0  0  0  0  3  0  0  0  0  0  0
   12.4290   -0.7670   -1.9900 C   0  0  0  0  0  0  0  0  0  0  0  0
   12.6920    0.7020   -2.2690 C   0  0  0  0  0  0  0  0  0  0  0  0
   13.8860    0.9170   -2.8810 F   0  0  0  0  0  0  0  0  0  0  0  0
   11.7540    1.2590   -3.0900 F   0  0  0  0  0  0  0  0  0  0  0  0
   12.6860    1.4750   -1.1490 F   0  0  0  0  0  0  0  0  0  0  0  0
  1  6  1  0  0  0  0
  1 17  1  0  0  0  0
  2  1  2  0  0  0  0
  3  4  2  0  0  0  0
  3  2  1  0  0  0  0
  4  5  1  0  0  0  0
  5  8  1  0  0  0  0
  5  6  1  0  0  0  0
  6  7  2  0  0  0  0
  9  2  1  0  0  0  0
 10  9  1  0  0  0  0
 11 10  2  0  0  0  0
 12 14  2  0  0  0  0
 12 11  1  0  0  0  0
 13 12  1  0  0  0  0
 14 15  1  0  0  0  0
 15  9  2  0  0  0  0
 17 16  1  0  0  0  0
 18  4  1  0  0  0  0
 19 18  1  0  0  0  0
 20 21  1  0  0  0  0
 20 19  1  0  0  0  0
 22 21  2  0  0  0  0
 23 22  1  0  0  0  0
 24 23  2  0  0  0  0
 24 25  1  0  0  0  0
 25 20  2  0  0  0  0
 26 25  1  0  0  0  0
 26 29  1  0  0  0  0
 27 26  1  0  0  0  0
 28 26  1  0  0  0  0
M  END
>  <minimizedAffinity>
-7.38909626

$$$$
