
 OpenBabel09122222393D

 29 31  0  0  0  0  0  0  0  0999 V2000
    8.9640   -3.6930    0.6900 C   0  0  0  0  0  0  0  0  0  0  0  0
    8.4400   -3.6140    1.9270 C   0  0  0  0  0  0  0  0  0  0  0  0
    7.3910   -4.3930    2.3690 N   0  0  0  0  0  0  0  0  0  0  0  0
    6.9360   -5.2880    1.5610 C   0  0  0  0  0  0  0  0  0  0  0  0
    7.4310   -5.5110    0.3190 N   0  0  0  0  0  0  0  0  0  0  0  0
    8.3980   -4.7130   -0.2160 C   0  0  0  0  0  0  0  0  0  0  0  0
    8.7670   -4.8550   -1.3760 O   0  0  0  0  0  0  0  0  0  0  0  0
    7.0620   -6.2480   -0.2590 H   0  0  0  0  0  0  0  0  0  0  0  0
    9.0400   -2.7220    2.9430 C   0  0  0  0  0  0  0  0  0  0  0  0
    9.6250   -3.2220    4.1140 C   0  0  0  0  0  3  0  0  0  0  0  0
   10.1620   -2.3470    5.0630 C   0  0  0  0  0  3  0  0  0  0  0  0
   10.1240   -0.9710    4.8390 C   0  0  0  0  0  0  0  0  0  0  0  0
   10.8460    0.2110    6.1260 Br  0  0  0  0  0  0  0  0  0  0  0  0
    9.5600   -0.4600    3.6730 C   0  0  0  0  0  3  0  0  0  0  0  0
    9.0220   -1.3350    2.7250 C   0  0  0  0  0  3  0  0  0  0  0  0
   11.1550   -2.2310   -0.2020 N   0  0  0  0  0  1  0  0  0  0  0  0
   10.1610   -2.8940    0.2020 C   0  0  0  0  0  2  0  0  0  0  0  0
    5.6470   -6.3390    2.0460 S   0  0  0  0  0  0  0  0  0  0  0  0
    4.3340   -5.1900    2.5210 C   0  0  0  0  0  2  0  0  0  0  0  0
    3.7020   -5.4240    3.8770 C   0  0  0  0  0  0  0  0  0  0  0  0
    3.6520   -6.7500    4.3590 C   0  0  0  0  0  3  0  0  0  0  0  0
    3.0600   -7.0560    5.5820 C   0  0  0  0  0  3  0  0  0  0  0  0
    2.5100   -6.0430    6.3540 C   0  0  0  0  0  3  0  0  0  0  0  0
    2.5640   -4.7230    5.9080 C   0  0  0  0  0  3  0  0  0  0  0  0
    3.1710   -4.3870    4.6790 C   0  0  0  0  0  0  0  0  0  0  0  0
    3.2030   -2.9230    4.2820 C   0  0  0  0  0  0  0  0  0  0  0  0
    4.0350   -2.6790    3.2360 F   0  0  0  0  0  0  0  0  0  0  0  0
    1.9800   -2.4540    3.8950 F   0  0  0  0  0  0  0  0  0  0  0  0
    3.5960   -2.0970    5.2890 F   0  0  0  0  0  0  0  0  0  0  0  0
  1  2  2  0  0  0  0
  2  3  1  0  0  0  0
  2  9  1  0  0  0  0
  4 18  1  0  0  0  0
  4  3  2  0  0  0  0
  5  4  1  0  0  0  0
  6  5  1  0  0  0  0
  6  1  1  0  0  0  0
  7  6  2  0  0  0  0
  8  5  1  0  0  0  0
  9 10  1  0  0  0  0
 10 11  2  0  0  0  0
 12 11  1  0  0  0  0
 12 13  1  0  0  0  0
 14 12  2  0  0  0  0
 15  9  2  0  0  0  0
 15 14  1  0  0  0  0
 16 17  1  0  0  0  0
 17  1  1  0  0  0  0
 18 19  1  0  0  0  0
 19 20  1  0  0  0  0
 20 21  2  0  0  0  0
 20 25  1  0  0  0  0
 21 22  1  0  0  0  0
 22 23  2  0  0  0  0
 24 23  1  0  0  0  0
 25 24  2  0  0  0  0
 26 25  1  0  0  0  0
 26 29  1  0  0  0  0
 27 26  1  0  0  0  0
 28 26  1  0  0  0  0
M  END
>  <minimizedAffinity>
-7.42144394

$$$$
