
 OpenBabel09122222393D

 29 31  0  0  0  0  0  0  0  0999 V2000
    8.5160   -3.7360    1.1430 C   0  0  0  0  0  0  0  0  0  0  0  0
    9.5260   -2.8910    1.4190 C   0  0  0  0  0  0  0  0  0  0  0  0
    9.7030   -2.2760    2.6410 N   0  0  0  0  0  0  0  0  0  0  0  0
    8.8840   -2.5880    3.5860 C   0  0  0  0  0  0  0  0  0  0  0  0
    7.8740   -3.4820    3.4490 N   0  0  0  0  0  0  0  0  0  0  0  0
    7.5810   -4.0480    2.2440 C   0  0  0  0  0  0  0  0  0  0  0  0
    6.6030   -4.7740    2.1050 O   0  0  0  0  0  0  0  0  0  0  0  0
    7.2840   -3.7160    4.2300 H   0  0  0  0  0  0  0  0  0  0  0  0
   10.5860   -2.6350    0.4200 C   0  0  0  0  0  0  0  0  0  0  0  0
   10.4660   -1.6250   -0.5440 C   0  0  0  0  0  3  0  0  0  0  0  0
   11.4780   -1.4270   -1.4880 C   0  0  0  0  0  3  0  0  0  0  0  0
   12.6170   -2.2320   -1.4640 C   0  0  0  0  0  0  0  0  0  0  0  0
   13.9830   -1.9660   -2.7440 Br  0  0  0  0  0  0  0  0  0  0  0  0
   12.7570   -3.2300   -0.5040 C   0  0  0  0  0  3  0  0  0  0  0  0
   11.7450   -3.4280    0.4390 C   0  0  0  0  0  3  0  0  0  0  0  0
    8.1890   -5.0880   -1.2640 N   0  0  0  0  0  1  0  0  0  0  0  0
    8.3370   -4.4750   -0.1730 C   0  0  0  0  0  2  0  0  0  0  0  0
    9.0550   -1.8980    5.1650 S   0  0  0  0  0  0  0  0  0  0  0  0
    7.8810   -2.8490    6.1600 C   0  0  0  0  0  2  0  0  0  0  0  0
    6.8320   -2.0470    6.9000 C   0  0  0  0  0  0  0  0  0  0  0  0
    7.2720   -0.9710    7.7010 C   0  0  0  0  0  3  0  0  0  0  0  0
    6.3750   -0.2030    8.4400 C   0  0  0  0  0  3  0  0  0  0  0  0
    5.0180   -0.4880    8.3900 C   0  0  0  0  0  3  0  0  0  0  0  0
    4.5580   -1.5330    7.5900 C   0  0  0  0  0  3  0  0  0  0  0  0
    5.4450   -2.3170    6.8230 C   0  0  0  0  0  0  0  0  0  0  0  0
    4.8560   -3.4220    5.9650 C   0  0  0  0  0  0  0  0  0  0  0  0
    5.3910   -4.6410    6.2350 F   0  0  0  0  0  0  0  0  0  0  0  0
    3.5100   -3.5650    6.1410 F   0  0  0  0  0  0  0  0  0  0  0  0
    5.0180   -3.2140    4.6300 F   0  0  0  0  0  0  0  0  0  0  0  0
  1  2  2  0  0  0  0
  1  6  1  0  0  0  0
  2  3  1  0  0  0  0
  3  4  2  0  0  0  0
  4 18  1  0  0  0  0
  5  4  1  0  0  0  0
  5  8  1  0  0  0  0
  6  5  1  0  0  0  0
  7  6  2  0  0  0  0
  9 15  1  0  0  0  0
  9  2  1  0  0  0  0
 10  9  2  0  0  0  0
 11 12  2  0  0  0  0
 11 10  1  0  0  0  0
 12 14  1  0  0  0  0
 13 12  1  0  0  0  0
 14 15  2  0  0  0  0
 16 17  1  0  0  0  0
 17  1  1  0  0  0  0
 18 19  1  0  0  0  0
 19 20  1  0  0  0  0
 20 21  1  0  0  0  0
 21 22  2  0  0  0  0
 23 22  1  0  0  0  0
 24 23  2  0  0  0  0
 25 20  2  0  0  0  0
 25 24  1  0  0  0  0
 26 28  1  0  0  0  0
 26 27  1  0  0  0  0
 26 25  1  0  0  0  0
 29 26  1  0  0  0  0
M  END
>  <minimizedAffinity>
-7.16844845

$$$$
