
 OpenBabel09122218023D

 37 41  0  0  1  0  0  0  0  0999 V2000
    2.8160   -3.2280    4.7710 C   0  0  0  0  0  0  0  0  0  0  0  0
    3.7690   -2.7820    3.8500 C   0  0  0  0  0  3  0  0  0  0  0  0
    4.5200   -3.6870    3.0930 C   0  0  0  0  0  3  0  0  0  0  0  0
    4.2570   -5.0530    3.2740 C   0  0  0  0  0  0  0  0  0  0  0  0
    3.3020   -5.5060    4.1790 C   0  0  0  0  0  0  0  0  0  0  0  0
    2.5530   -4.5920    4.9340 C   0  0  0  0  0  3  0  0  0  0  0  0
    3.2500   -6.8730    4.1860 N   0  0  0  0  0  0  0  0  0  0  0  0
    4.1960   -7.2860    3.3660 C   0  0  0  0  0  0  0  0  0  0  0  0
    4.7500   -6.2090    2.6920 N   0  0  0  0  0  0  0  0  0  0  0  0
    5.6240   -6.2730    1.5250 C   0  0  0  0  0  3  0  0  0  0  0  0
    4.8950   -6.0580    0.1850 C   0  0  0  0  0  2  0  0  0  0  0  0
    5.8560   -6.2050   -0.9950 C   0  0  0  0  0  2  0  0  0  0  0  0
    7.0630   -5.2810   -0.8520 C   0  0  0  0  0  2  0  0  0  0  0  0
    7.7900   -5.5020    0.4710 C   0  0  0  0  0  2  0  0  0  0  0  0
    6.8500   -5.3610    1.6670 C   0  0  0  0  0  2  0  0  0  0  0  0
    4.5360   -8.7390    3.2770 C   0  0  0  0  0  0  0  0  0  0  0  0
    3.7450   -9.8830    3.0060 C   0  0  0  0  0  3  0  0  0  0  0  0
    4.6040  -10.9600    3.0290 C   0  0  0  0  0  3  0  0  0  0  0  0
    5.8730  -10.5540    3.2790 O   0  0  0  0  0  0  0  0  0  0  0  0
    5.8280   -9.2020    3.4110 C   0  0  0  0  0  3  0  0  0  0  0  0
    1.1390   -1.6260    4.9050 O   0  0  0  0  0  0  0  0  0  0  0  0
    2.0330   -2.2160    5.5070 C   0  0  0  0  0  0  0  0  0  0  0  0
    2.3400   -1.9440    6.8070 N   0  0  0  0  0  0  0  0  0  0  0  0
    1.7240   -1.2950    7.2960 H   0  0  0  0  0  0  0  0  0  0  0  0
    3.4420   -2.4170    7.6820 C   0  0  2  0  0  3  0  0  0  0  0  0
    2.9380   -2.9860    9.0480 C   0  0  0  0  0  0  0  0  0  0  0  0
    3.7950   -3.6160    9.7320 O   0  0  0  0  0  1  0  0  0  0  0  0
    1.7160   -2.7590    9.3020 O   0  0  0  0  0  0  0  0  0  0  0  0
    4.5190   -1.3470    7.9350 C   0  0  0  0  0  2  0  0  0  0  0  0
    5.8920   -1.6420    7.3620 C   0  0  0  0  0  0  0  0  0  0  0  0
    6.9810   -0.8170    7.6740 C   0  0  0  0  0  3  0  0  0  0  0  0
    8.2460   -1.0740    7.1420 C   0  0  0  0  0  3  0  0  0  0  0  0
    8.4240   -2.1660    6.3000 C   0  0  0  0  0  0  0  0  0  0  0  0
    7.3610   -3.0010    5.9830 C   0  0  0  0  0  3  0  0  0  0  0  0
    6.0950   -2.7370    6.5100 C   0  0  0  0  0  3  0  0  0  0  0  0
    9.6440   -2.4440    5.7530 O   0  0  0  0  0  0  0  0  0  0  0  0
   10.2260   -1.6920    5.9540 H   0  0  0  0  0  0  0  0  0  0  0  0
  1  6  1  0  0  0  0
  1 22  1  0  0  0  0
  2  1  2  0  0  0  0
  3  4  2  0  0  0  0
  3  2  1  0  0  0  0
  4  5  1  0  0  0  0
  5  7  1  0  0  0  0
  5  6  2  0  0  0  0
  8  7  2  0  0  0  0
  9  4  1  0  0  0  0
  9  8  1  0  0  0  0
 10 15  1  0  0  0  0
 10  9  1  0  0  0  0
 11 10  1  0  0  0  0
 12 13  1  0  0  0  0
 12 11  1  0  0  0  0
 13 14  1  0  0  0  0
 14 15  1  0  0  0  0
 16  8  1  0  0  0  0
 16 20  2  0  0  0  0
 17 18  2  0  0  0  0
 17 16  1  0  0  0  0
 18 19  1  0  0  0  0
 19 20  1  0  0  0  0
 21 22  2  0  0  0  0
 22 23  1  0  0  0  0
 23 24  1  0  0  0  0
 23 25  1  0  0  0  0
 25 29  1  1  0  0  0
 25 26  1  0  0  0  0
 26 28  2  0  0  0  0
 26 27  1  0  0  0  0
 30 31  1  0  0  0  0
 30 29  1  0  0  0  0
 32 31  2  0  0  0  0
 33 32  1  0  0  0  0
 34 33  2  0  0  0  0
 34 35  1  0  0  0  0
 35 30  2  0  0  0  0
 36 37  1  0  0  0  0
 36 33  1  0  0  0  0
M  END
>  <minimizedAffinity>
-8.46229935

$$$$

 OpenBabel09122218023D

 37 41  0  0  1  0  0  0  0  0999 V2000
    5.9910   -6.0900    0.6480 C   0  0  0  0  0  0  0  0  0  0  0  0
    6.1940   -5.5180    1.9070 C   0  0  0  0  0  3  0  0  0  0  0  0
    7.2470   -4.6250    2.1320 C   0  0  0  0  0  3  0  0  0  0  0  0
    8.0680   -4.3070    1.0390 C   0  0  0  0  0  0  0  0  0  0  0  0
    7.8660   -4.8630   -0.2210 C   0  0  0  0  0  0  0  0  0  0  0  0
    6.8080   -5.7580   -0.4380 C   0  0  0  0  0  3  0  0  0  0  0  0
    8.8070   -4.4140   -1.1060 N   0  0  0  0  0  0  0  0  0  0  0  0
    9.6330   -3.6520   -0.4160 C   0  0  0  0  0  0  0  0  0  0  0  0
    9.1490   -3.4570    0.8670 N   0  0  0  0  0  0  0  0  0  0  0  0
    9.6260   -2.4760    1.8350 C   0  0  0  0  0  3  0  0  0  0  0  0
    8.8790   -1.1300    1.7830 C   0  0  0  0  0  2  0  0  0  0  0  0
    9.4740   -0.1300    2.7750 C   0  0  0  0  0  2  0  0  0  0  0  0
    9.5150   -0.7020    4.1890 C   0  0  0  0  0  2  0  0  0  0  0  0
   10.2640   -2.0300    4.2420 C   0  0  0  0  0  2  0  0  0  0  0  0
    9.6880   -3.0470    3.2580 C   0  0  0  0  0  2  0  0  0  0  0  0
   10.8910   -3.1420   -1.0450 C   0  0  0  0  0  0  0  0  0  0  0  0
   12.0760   -3.7970   -1.4610 C   0  0  0  0  0  3  0  0  0  0  0  0
   12.8880   -2.8220   -1.9960 C   0  0  0  0  0  3  0  0  0  0  0  0
   12.2750   -1.6130   -1.9520 O   0  0  0  0  0  0  0  0  0  0  0  0
   11.0560   -1.8180   -1.3900 C   0  0  0  0  0  3  0  0  0  0  0  0
    4.3350   -7.0820   -0.6450 O   0  0  0  0  0  0  0  0  0  0  0  0
    4.8370   -6.9950    0.4730 C   0  0  0  0  0  0  0  0  0  0  0  0
    4.3460   -7.6740    1.5470 N   0  0  0  0  0  0  0  0  0  0  0  0
    3.6000   -8.3440    1.3630 H   0  0  0  0  0  0  0  0  0  0  0  0
    4.6920   -7.6230    2.9910 C   0  0  2  0  0  3  0  0  0  0  0  0
    5.5800   -8.8240    3.4510 C   0  0  0  0  0  0  0  0  0  0  0  0
    5.0180   -9.6630    4.2130 O   0  0  0  0  0  1  0  0  0  0  0  0
    6.7710   -8.8050    3.0160 O   0  0  0  0  0  0  0  0  0  0  0  0
    3.4600   -7.5120    3.9070 C   0  0  0  0  0  2  0  0  0  0  0  0
    3.2300   -6.1550    4.5440 C   0  0  0  0  0  0  0  0  0  0  0  0
    2.8750   -6.0600    5.8960 C   0  0  0  0  0  3  0  0  0  0  0  0
    2.6500   -4.8150    6.4890 C   0  0  0  0  0  3  0  0  0  0  0  0
    2.7890   -3.6610    5.7280 C   0  0  0  0  0  0  0  0  0  0  0  0
    3.1480   -3.7310    4.3880 C   0  0  0  0  0  3  0  0  0  0  0  0
    3.3640   -4.9770    3.7960 C   0  0  0  0  0  3  0  0  0  0  0  0
    2.5680   -2.4270    6.2700 O   0  0  0  0  0  0  0  0  0  0  0  0
    2.1890   -2.5670    7.1540 H   0  0  0  0  0  0  0  0  0  0  0  0
  1  2  1  0  0  0  0
  2  3  2  0  0  0  0
  4  3  1  0  0  0  0
  5  4  2  0  0  0  0
  6  5  1  0  0  0  0
  6  1  2  0  0  0  0
  7  8  2  0  0  0  0
  7  5  1  0  0  0  0
  8  9  1  0  0  0  0
  9  4  1  0  0  0  0
  9 10  1  0  0  0  0
 10 15  1  0  0  0  0
 11 10  1  0  0  0  0
 11 12  1  0  0  0  0
 12 13  1  0  0  0  0
 13 14  1  0  0  0  0
 15 14  1  0  0  0  0
 16  8  1  0  0  0  0
 17 16  1  0  0  0  0
 18 19  1  0  0  0  0
 18 17  2  0  0  0  0
 19 20  1  0  0  0  0
 20 16  2  0  0  0  0
 21 22  2  0  0  0  0
 22  1  1  0  0  0  0
 22 23  1  0  0  0  0
 23 25  1  0  0  0  0
 24 23  1  0  0  0  0
 25 26  1  0  0  0  0
 25 29  1  1  0  0  0
 26 27  1  0  0  0  0
 28 26  2  0  0  0  0
 29 30  1  0  0  0  0
 30 31  1  0  0  0  0
 31 32  2  0  0  0  0
 33 36  1  0  0  0  0
 33 32  1  0  0  0  0
 34 33  2  0  0  0  0
 35 34  1  0  0  0  0
 35 30  2  0  0  0  0
 36 37  1  0  0  0  0
M  END
>  <minimizedAffinity>
-8.05729485

$$$$

 OpenBabel09122218023D

 37 41  0  0  1  0  0  0  0  0999 V2000
    2.8540   -3.2280    5.5110 C   0  0  0  0  0  0  0  0  0  0  0  0
    2.5640   -4.4770    6.0670 C   0  0  0  0  0  3  0  0  0  0  0  0
    2.9180   -5.6590    5.4090 C   0  0  0  0  0  3  0  0  0  0  0  0
    3.6000   -5.5390    4.1890 C   0  0  0  0  0  0  0  0  0  0  0  0
    3.9040   -4.2990    3.6340 C   0  0  0  0  0  0  0  0  0  0  0  0
    3.5450   -3.1190    4.3000 C   0  0  0  0  0  3  0  0  0  0  0  0
    4.5480   -4.4490    2.4360 N   0  0  0  0  0  0  0  0  0  0  0  0
    4.5890   -5.7450    2.1940 C   0  0  0  0  0  0  0  0  0  0  0  0
    4.1360   -6.4530    3.2950 N   0  0  0  0  0  0  0  0  0  0  0  0
    4.2730   -7.8880    3.5210 C   0  0  0  0  0  3  0  0  0  0  0  0
    3.1110   -8.7250    2.9550 C   0  0  0  0  0  2  0  0  0  0  0  0
    3.2870  -10.2070    3.2850 C   0  0  0  0  0  2  0  0  0  0  0  0
    4.6410  -10.7280    2.8130 C   0  0  0  0  0  2  0  0  0  0  0  0
    5.7930   -9.9050    3.3830 C   0  0  0  0  0  2  0  0  0  0  0  0
    5.6400   -8.4180    3.0660 C   0  0  0  0  0  2  0  0  0  0  0  0
    5.0680   -6.2500    0.8710 C   0  0  0  0  0  0  0  0  0  0  0  0
    6.3200   -6.1520    0.2150 C   0  0  0  0  0  3  0  0  0  0  0  0
    6.1860   -6.8310   -0.9760 C   0  0  0  0  0  3  0  0  0  0  0  0
    4.9400   -7.3540   -1.0890 O   0  0  0  0  0  0  0  0  0  0  0  0
    4.2720   -7.0130    0.0440 C   0  0  0  0  0  3  0  0  0  0  0  0
    1.5890   -1.3070    5.8360 O   0  0  0  0  0  0  0  0  0  0  0  0
    2.4840   -2.0220    6.2790 C   0  0  0  0  0  0  0  0  0  0  0  0
    3.1580   -1.7220    7.4250 N   0  0  0  0  0  0  0  0  0  0  0  0
    2.8180   -0.9240    7.9600 H   0  0  0  0  0  0  0  0  0  0  0  0
    4.3430   -2.3460    8.0660 C   0  0  2  0  0  3  0  0  0  0  0  0
    4.0280   -2.9570    9.4700 C   0  0  0  0  0  0  0  0  0  0  0  0
    4.8800   -2.7250   10.3760 O   0  0  0  0  0  1  0  0  0  0  0  0
    2.9560   -3.6320    9.5300 O   0  0  0  0  0  0  0  0  0  0  0  0
    5.5470   -1.3930    8.1780 C   0  0  0  0  0  2  0  0  0  0  0  0
    6.7190   -1.7000    7.2670 C   0  0  0  0  0  0  0  0  0  0  0  0
    6.6420   -2.7530    6.3450 C   0  0  0  0  0  3  0  0  0  0  0  0
    7.7210   -3.0500    5.5100 C   0  0  0  0  0  3  0  0  0  0  0  0
    8.8790   -2.2860    5.5910 C   0  0  0  0  0  0  0  0  0  0  0  0
    8.9750   -1.2330    6.4910 C   0  0  0  0  0  3  0  0  0  0  0  0
    7.8980   -0.9430    7.3310 C   0  0  0  0  0  3  0  0  0  0  0  0
    9.9580   -2.5520    4.7970 O   0  0  0  0  0  0  0  0  0  0  0  0
    9.7790   -3.3940    4.3440 H   0  0  0  0  0  0  0  0  0  0  0  0
  1  2  1  0  0  0  0
  1 22  1  0  0  0  0
  3  2  2  0  0  0  0
  4  3  1  0  0  0  0
  5  4  2  0  0  0  0
  5  6  1  0  0  0  0
  6  1  2  0  0  0  0
  7  5  1  0  0  0  0
  8  7  2  0  0  0  0
  8  9  1  0  0  0  0
  9 10  1  0  0  0  0
  9  4  1  0  0  0  0
 11 12  1  0  0  0  0
 11 10  1  0  0  0  0
 13 12  1  0  0  0  0
 13 14  1  0  0  0  0
 15 14  1  0  0  0  0
 15 10  1  0  0  0  0
 16  8  1  0  0  0  0
 17 16  1  0  0  0  0
 18 17  2  0  0  0  0
 19 18  1  0  0  0  0
 19 20  1  0  0  0  0
 20 16  2  0  0  0  0
 21 22  2  0  0  0  0
 22 23  1  0  0  0  0
 23 24  1  0  0  0  0
 23 25  1  0  0  0  0
 25 29  1  1  0  0  0
 25 26  1  0  0  0  0
 26 28  2  0  0  0  0
 26 27  1  0  0  0  0
 30 35  1  0  0  0  0
 30 29  1  0  0  0  0
 31 30  2  0  0  0  0
 32 33  2  0  0  0  0
 32 31  1  0  0  0  0
 33 34  1  0  0  0  0
 34 35  2  0  0  0  0
 36 33  1  0  0  0  0
 37 36  1  0  0  0  0
M  END
>  <minimizedAffinity>
-7.6705184

$$$$

 OpenBabel09122218023D

 37 41  0  0  1  0  0  0  0  0999 V2000
    5.3240   -6.5160    1.0970 C   0  0  0  0  0  0  0  0  0  0  0  0
    5.2080   -5.7070    2.2310 C   0  0  0  0  0  3  0  0  0  0  0  0
    6.1650   -4.7290    2.5190 C   0  0  0  0  0  3  0  0  0  0  0  0
    7.2240   -4.5740    1.6110 C   0  0  0  0  0  0  0  0  0  0  0  0
    7.3400   -5.3680    0.4730 C   0  0  0  0  0  0  0  0  0  0  0  0
    6.3760   -6.3470    0.1920 C   0  0  0  0  0  3  0  0  0  0  0  0
    8.4630   -5.0400   -0.2340 N   0  0  0  0  0  0  0  0  0  0  0  0
    9.0890   -4.1150    0.4680 C   0  0  0  0  0  0  0  0  0  0  0  0
    8.3050   -3.7110    1.5360 N   0  0  0  0  0  0  0  0  0  0  0  0
    8.5220   -2.5390    2.3770 C   0  0  0  0  0  3  0  0  0  0  0  0
    9.4090   -2.8090    3.6080 C   0  0  0  0  0  2  0  0  0  0  0  0
    9.5390   -1.5580    4.4780 C   0  0  0  0  0  2  0  0  0  0  0  0
   10.0390   -0.3640    3.6700 C   0  0  0  0  0  2  0  0  0  0  0  0
    9.1540   -0.0910    2.4570 C   0  0  0  0  0  2  0  0  0  0  0  0
    9.0080   -1.3270    1.5710 C   0  0  0  0  0  2  0  0  0  0  0  0
   10.4560   -3.6610    0.0670 C   0  0  0  0  0  0  0  0  0  0  0  0
   11.7140   -3.7560    0.7110 C   0  0  0  0  0  3  0  0  0  0  0  0
   12.6300   -3.1840   -0.1440 C   0  0  0  0  0  3  0  0  0  0  0  0
   12.0230   -2.7590   -1.2790 O   0  0  0  0  0  0  0  0  0  0  0  0
   10.7060   -3.0670   -1.1520 C   0  0  0  0  0  3  0  0  0  0  0  0
    3.6050   -7.3890   -0.2000 O   0  0  0  0  0  0  0  0  0  0  0  0
    4.2560   -7.5030    0.8360 C   0  0  0  0  0  0  0  0  0  0  0  0
    4.0030   -8.4790    1.7520 N   0  0  0  0  0  0  0  0  0  0  0  0
    3.3110   -9.1810    1.4930 H   0  0  0  0  0  0  0  0  0  0  0  0
    4.5520   -8.7260    3.1100 C   0  0  2  0  0  3  0  0  0  0  0  0
    5.9560   -9.4140    3.0860 C   0  0  0  0  0  0  0  0  0  0  0  0
    5.9490  -10.6790    3.1080 O   0  0  0  0  0  1  0  0  0  0  0  0
    6.9410   -8.6150    3.0650 O   0  0  0  0  0  0  0  0  0  0  0  0
    3.6000   -9.5290    4.0140 C   0  0  0  0  0  2  0  0  0  0  0  0
    2.3340   -8.8130    4.4410 C   0  0  0  0  0  0  0  0  0  0  0  0
    2.4040   -7.5490    5.0420 C   0  0  0  0  0  3  0  0  0  0  0  0
    1.2440   -6.8870    5.4500 C   0  0  0  0  0  3  0  0  0  0  0  0
    0.0070   -7.4880    5.2470 C   0  0  0  0  0  0  0  0  0  0  0  0
   -0.0870   -8.7370    4.6460 C   0  0  0  0  0  3  0  0  0  0  0  0
    1.0750   -9.4010    4.2470 C   0  0  0  0  0  3  0  0  0  0  0  0
   -1.1480   -6.8760    5.6400 O   0  0  0  0  0  0  0  0  0  0  0  0
   -0.8950   -6.0980    6.1650 H   0  0  0  0  0  0  0  0  0  0  0  0
  1  2  1  0  0  0  0
  2  3  2  0  0  0  0
  4  3  1  0  0  0  0
  5  4  2  0  0  0  0
  6  5  1  0  0  0  0
  6  1  2  0  0  0  0
  7  8  2  0  0  0  0
  7  5  1  0  0  0  0
  8  9  1  0  0  0  0
  9  4  1  0  0  0  0
  9 10  1  0  0  0  0
 10 11  1  0  0  0  0
 11 12  1  0  0  0  0
 13 12  1  0  0  0  0
 14 13  1  0  0  0  0
 15 10  1  0  0  0  0
 15 14  1  0  0  0  0
 16  8  1  0  0  0  0
 16 17  1  0  0  0  0
 18 17  2  0  0  0  0
 19 20  1  0  0  0  0
 19 18  1  0  0  0  0
 20 16  2  0  0  0  0
 21 22  2  0  0  0  0
 22  1  1  0  0  0  0
 22 23  1  0  0  0  0
 23 25  1  0  0  0  0
 24 23  1  0  0  0  0
 25 29  1  1  0  0  0
 26 27  1  0  0  0  0
 26 25  1  0  0  0  0
 28 26  2  0  0  0  0
 29 30  1  0  0  0  0
 30 31  1  0  0  0  0
 31 32  2  0  0  0  0
 33 32  1  0  0  0  0
 33 36  1  0  0  0  0
 34 33  2  0  0  0  0
 35 30  2  0  0  0  0
 35 34  1  0  0  0  0
 36 37  1  0  0  0  0
M  END
>  <minimizedAffinity>
-7.48218107

$$$$

 OpenBabel09122218023D

 37 41  0  0  1  0  0  0  0  0999 V2000
    2.7590   -3.3970    5.8300 C   0  0  0  0  0  0  0  0  0  0  0  0
    2.4010   -4.6770    6.2660 C   0  0  0  0  0  3  0  0  0  0  0  0
    2.7610   -5.8140    5.5350 C   0  0  0  0  0  3  0  0  0  0  0  0
    3.5170   -5.6200    4.3690 C   0  0  0  0  0  0  0  0  0  0  0  0
    3.8880   -4.3500    3.9350 C   0  0  0  0  0  0  0  0  0  0  0  0
    3.5230   -3.2150    4.6730 C   0  0  0  0  0  3  0  0  0  0  0  0
    4.5980   -4.4250    2.7680 N   0  0  0  0  0  0  0  0  0  0  0  0
    4.6170   -5.6980    2.4240 C   0  0  0  0  0  0  0  0  0  0  0  0
    4.0790   -6.4760    3.4370 N   0  0  0  0  0  0  0  0  0  0  0  0
    4.1630   -7.9280    3.5530 C   0  0  0  0  0  3  0  0  0  0  0  0
    3.0520   -8.6820    2.7970 C   0  0  0  0  0  2  0  0  0  0  0  0
    3.1610  -10.1900    3.0170 C   0  0  0  0  0  2  0  0  0  0  0  0
    4.5480  -10.7100    2.6490 C   0  0  0  0  0  2  0  0  0  0  0  0
    5.6480   -9.9710    3.4050 C   0  0  0  0  0  2  0  0  0  0  0  0
    5.5590   -8.4590    3.2020 C   0  0  0  0  0  2  0  0  0  0  0  0
    5.1590   -6.1120    1.0940 C   0  0  0  0  0  0  0  0  0  0  0  0
    4.5630   -6.7700   -0.0100 C   0  0  0  0  0  3  0  0  0  0  0  0
    5.5400   -6.8650   -0.9760 C   0  0  0  0  0  3  0  0  0  0  0  0
    6.6930   -6.2950   -0.5470 O   0  0  0  0  0  0  0  0  0  0  0  0
    6.4490   -5.8230    0.7040 C   0  0  0  0  0  3  0  0  0  0  0  0
    2.0000   -1.2200    6.1100 O   0  0  0  0  0  0  0  0  0  0  0  0
    2.3790   -2.2450    6.6710 C   0  0  0  0  0  0  0  0  0  0  0  0
    2.4870   -2.3360    8.0270 N   0  0  0  0  0  0  0  0  0  0  0  0
    2.1410   -1.5440    8.5680 H   0  0  0  0  0  0  0  0  0  0  0  0
    3.0410   -3.3990    8.9040 C   0  0  2  0  0  3  0  0  0  0  0  0
    2.0790   -3.7920   10.0720 C   0  0  0  0  0  0  0  0  0  0  0  0
    1.7470   -2.8520   10.8510 O   0  0  0  0  0  1  0  0  0  0  0  0
    1.7570   -5.0180   10.1080 O   0  0  0  0  0  0  0  0  0  0  0  0
    4.4290   -3.0550    9.4740 C   0  0  0  0  0  2  0  0  0  0  0  0
    5.4780   -2.6470    8.4580 C   0  0  0  0  0  0  0  0  0  0  0  0
    5.9550   -3.5760    7.5220 C   0  0  0  0  0  3  0  0  0  0  0  0
    6.9300   -3.2130    6.5900 C   0  0  0  0  0  3  0  0  0  0  0  0
    7.4240   -1.9140    6.5880 C   0  0  0  0  0  0  0  0  0  0  0  0
    6.9600   -0.9750    7.5010 C   0  0  0  0  0  3  0  0  0  0  0  0
    5.9910   -1.3430    8.4380 C   0  0  0  0  0  3  0  0  0  0  0  0
    8.3830   -1.5250    5.6980 O   0  0  0  0  0  0  0  0  0  0  0  0
    8.6940   -2.3260    5.2440 H   0  0  0  0  0  0  0  0  0  0  0  0
  1  2  1  0  0  0  0
  1 22  1  0  0  0  0
  3  2  2  0  0  0  0
  4  3  1  0  0  0  0
  5  4  2  0  0  0  0
  5  6  1  0  0  0  0
  6  1  2  0  0  0  0
  7  5  1  0  0  0  0
  8  7  2  0  0  0  0
  8  9  1  0  0  0  0
  9 10  1  0  0  0  0
  9  4  1  0  0  0  0
 11 12  1  0  0  0  0
 11 10  1  0  0  0  0
 13 12  1  0  0  0  0
 13 14  1  0  0  0  0
 15 14  1  0  0  0  0
 15 10  1  0  0  0  0
 16  8  1  0  0  0  0
 17 16  1  0  0  0  0
 18 19  1  0  0  0  0
 18 17  2  0  0  0  0
 19 20  1  0  0  0  0
 20 16  2  0  0  0  0
 21 22  2  0  0  0  0
 22 23  1  0  0  0  0
 23 24  1  0  0  0  0
 23 25  1  0  0  0  0
 25 29  1  1  0  0  0
 25 26  1  0  0  0  0
 26 28  2  0  0  0  0
 26 27  1  0  0  0  0
 30 29  1  0  0  0  0
 31 30  2  0  0  0  0
 32 31  1  0  0  0  0
 33 32  2  0  0  0  0
 33 34  1  0  0  0  0
 34 35  2  0  0  0  0
 35 30  1  0  0  0  0
 36 33  1  0  0  0  0
 37 36  1  0  0  0  0
M  END
>  <minimizedAffinity>
-7.31235743

$$$$

 OpenBabel09122218023D

 37 41  0  0  1  0  0  0  0  0999 V2000
    3.8370   -4.2450    6.0070 C   0  0  0  0  0  0  0  0  0  0  0  0
    3.2460   -5.5040    5.8630 C   0  0  0  0  0  3  0  0  0  0  0  0
    3.5770   -6.3370    4.7900 C   0  0  0  0  0  3  0  0  0  0  0  0
    4.5450   -5.8720    3.8860 C   0  0  0  0  0  0  0  0  0  0  0  0
    5.1470   -4.6260    4.0290 C   0  0  0  0  0  0  0  0  0  0  0  0
    4.8100   -3.7960    5.1080 C   0  0  0  0  0  3  0  0  0  0  0  0
    6.0340   -4.3970    3.0130 N   0  0  0  0  0  0  0  0  0  0  0  0
    5.9480   -5.4330    2.2020 C   0  0  0  0  0  0  0  0  0  0  0  0
    5.1450   -6.4140    2.7610 N   0  0  0  0  0  0  0  0  0  0  0  0
    5.0180   -7.7950    2.3060 C   0  0  0  0  0  3  0  0  0  0  0  0
    5.2690   -8.8420    3.4070 C   0  0  0  0  0  2  0  0  0  0  0  0
    5.1870  -10.2620    2.8470 C   0  0  0  0  0  2  0  0  0  0  0  0
    3.8630  -10.5030    2.1270 C   0  0  0  0  0  2  0  0  0  0  0  0
    3.6200   -9.4720    1.0290 C   0  0  0  0  0  2  0  0  0  0  0  0
    3.6980   -8.0430    1.5650 C   0  0  0  0  0  2  0  0  0  0  0  0
    6.6560   -5.4210    0.8860 C   0  0  0  0  0  0  0  0  0  0  0  0
    6.2050   -5.6560   -0.4370 C   0  0  0  0  0  3  0  0  0  0  0  0
    7.3000   -5.4820   -1.2540 C   0  0  0  0  0  3  0  0  0  0  0  0
    8.3910   -5.1410   -0.5260 O   0  0  0  0  0  0  0  0  0  0  0  0
    7.9890   -5.0870    0.7710 C   0  0  0  0  0  3  0  0  0  0  0  0
    2.4420   -2.7610    7.1240 O   0  0  0  0  0  0  0  0  0  0  0  0
    3.4680   -3.4350    7.1850 C   0  0  0  0  0  0  0  0  0  0  0  0
    4.2800   -3.4300    8.2790 N   0  0  0  0  0  0  0  0  0  0  0  0
    3.9460   -2.9170    9.0950 H   0  0  0  0  0  0  0  0  0  0  0  0
    5.6120   -4.0400    8.5240 C   0  0  2  0  0  3  0  0  0  0  0  0
    5.5310   -5.3950    9.2990 C   0  0  0  0  0  0  0  0  0  0  0  0
    5.7390   -5.3300   10.5450 O   0  0  0  0  0  1  0  0  0  0  0  0
    5.2820   -6.4080    8.5770 O   0  0  0  0  0  0  0  0  0  0  0  0
    6.5910   -3.0940    9.2420 C   0  0  0  0  0  2  0  0  0  0  0  0
    7.8810   -2.7930    8.5030 C   0  0  0  0  0  0  0  0  0  0  0  0
    9.1180   -3.0090    9.1250 C   0  0  0  0  0  3  0  0  0  0  0  0
   10.3110   -2.7240    8.4570 C   0  0  0  0  0  3  0  0  0  0  0  0
   10.2660   -2.2300    7.1590 C   0  0  0  0  0  0  0  0  0  0  0  0
    9.0510   -2.0160    6.5210 C   0  0  0  0  0  3  0  0  0  0  0  0
    7.8600   -2.2930    7.1940 C   0  0  0  0  0  3  0  0  0  0  0  0
   11.4120   -1.9310    6.4770 O   0  0  0  0  0  0  0  0  0  0  0  0
   12.1460   -1.9970    7.1100 H   0  0  0  0  0  0  0  0  0  0  0  0
  1 22  1  0  0  0  0
  2  1  1  0  0  0  0
  3  2  2  0  0  0  0
  4  5  2  0  0  0  0
  4  3  1  0  0  0  0
  5  6  1  0  0  0  0
  6  1  2  0  0  0  0
  7  5  1  0  0  0  0
  8  9  1  0  0  0  0
  8  7  2  0  0  0  0
  9  4  1  0  0  0  0
 10  9  1  0  0  0  0
 10 11  1  0  0  0  0
 12 11  1  0  0  0  0
 13 12  1  0  0  0  0
 14 15  1  0  0  0  0
 14 13  1  0  0  0  0
 15 10  1  0  0  0  0
 16  8  1  0  0  0  0
 17 16  1  0  0  0  0
 18 19  1  0  0  0  0
 18 17  2  0  0  0  0
 19 20  1  0  0  0  0
 20 16  2  0  0  0  0
 21 22  2  0  0  0  0
 22 23  1  0  0  0  0
 23 25  1  0  0  0  0
 23 24  1  0  0  0  0
 25 29  1  1  0  0  0
 25 26  1  0  0  0  0
 26 27  1  0  0  0  0
 28 26  2  0  0  0  0
 30 31  1  0  0  0  0
 30 29  1  0  0  0  0
 32 31  2  0  0  0  0
 33 32  1  0  0  0  0
 34 33  2  0  0  0  0
 34 35  1  0  0  0  0
 35 30  2  0  0  0  0
 36 37  1  0  0  0  0
 36 33  1  0  0  0  0
M  END
>  <minimizedAffinity>
-7.26479292

$$$$

 OpenBabel09122218023D

 37 41  0  0  1  0  0  0  0  0999 V2000
    9.6490   -1.8650    6.9030 C   0  0  0  0  0  0  0  0  0  0  0  0
   10.4910   -1.4210    5.8790 C   0  0  0  0  0  3  0  0  0  0  0  0
   10.2040   -1.6970    4.5390 C   0  0  0  0  0  3  0  0  0  0  0  0
    9.0260   -2.4070    4.2640 C   0  0  0  0  0  0  0  0  0  0  0  0
    8.1740   -2.8410    5.2760 C   0  0  0  0  0  0  0  0  0  0  0  0
    8.4700   -2.5620    6.6170 C   0  0  0  0  0  3  0  0  0  0  0  0
    7.1120   -3.5260    4.7540 N   0  0  0  0  0  0  0  0  0  0  0  0
    7.3140   -3.5940    3.4520 C   0  0  0  0  0  0  0  0  0  0  0  0
    8.4030   -2.8160    3.0960 N   0  0  0  0  0  0  0  0  0  0  0  0
    8.7810   -2.4210    1.7430 C   0  0  0  0  0  3  0  0  0  0  0  0
    9.2700   -0.9650    1.6290 C   0  0  0  0  0  2  0  0  0  0  0  0
    9.5830   -0.6010    0.1780 C   0  0  0  0  0  2  0  0  0  0  0  0
   10.5750   -1.5810   -0.4440 C   0  0  0  0  0  2  0  0  0  0  0  0
   10.0850   -3.0220   -0.3400 C   0  0  0  0  0  2  0  0  0  0  0  0
    9.7640   -3.4100    1.1020 C   0  0  0  0  0  2  0  0  0  0  0  0
    6.4270   -4.4380    2.5950 C   0  0  0  0  0  0  0  0  0  0  0  0
    6.7080   -5.3470    1.5450 C   0  0  0  0  0  3  0  0  0  0  0  0
    5.4930   -5.8540    1.1380 C   0  0  0  0  0  3  0  0  0  0  0  0
    4.4850   -5.3300    1.8780 O   0  0  0  0  0  0  0  0  0  0  0  0
    5.0600   -4.4850    2.7730 C   0  0  0  0  0  3  0  0  0  0  0  0
   10.9830   -2.0320    8.7970 O   0  0  0  0  0  0  0  0  0  0  0  0
    9.9940   -1.5050    8.2930 C   0  0  0  0  0  0  0  0  0  0  0  0
    9.2000   -0.6370    8.9800 N   0  0  0  0  0  0  0  0  0  0  0  0
    9.5200   -0.3600    9.9070 H   0  0  0  0  0  0  0  0  0  0  0  0
    7.9050    0.0030    8.6340 C   0  0  2  0  0  3  0  0  0  0  0  0
    8.0310    1.5400    8.3770 C   0  0  0  0  0  0  0  0  0  0  0  0
    7.6920    2.2880    9.3390 O   0  0  0  0  0  1  0  0  0  0  0  0
    8.4450    1.8550    7.2200 O   0  0  0  0  0  0  0  0  0  0  0  0
    6.8010   -0.2570    9.6750 C   0  0  0  0  0  2  0  0  0  0  0  0
    5.4110   -0.4960    9.1190 C   0  0  0  0  0  0  0  0  0  0  0  0
    4.2810   -0.2470    9.9090 C   0  0  0  0  0  3  0  0  0  0  0  0
    2.9970   -0.4760    9.4090 C   0  0  0  0  0  3  0  0  0  0  0  0
    2.8420   -0.9480    8.1110 C   0  0  0  0  0  0  0  0  0  0  0  0
    3.9490   -1.1940    7.3080 C   0  0  0  0  0  3  0  0  0  0  0  0
    5.2310   -0.9730    7.8130 C   0  0  0  0  0  3  0  0  0  0  0  0
    1.6030   -1.1920    7.5910 O   0  0  0  0  0  0  0  0  0  0  0  0
    0.9660   -1.1100    8.3210 H   0  0  0  0  0  0  0  0  0  0  0  0
  1 22  1  0  0  0  0
  2  1  2  0  0  0  0
  3  2  1  0  0  0  0
  4  3  2  0  0  0  0
  4  5  1  0  0  0  0
  5  6  2  0  0  0  0
  6  1  1  0  0  0  0
  7  5  1  0  0  0  0
  8  7  2  0  0  0  0
  9  8  1  0  0  0  0
  9  4  1  0  0  0  0
 10  9  1  0  0  0  0
 11 10  1  0  0  0  0
 12 11  1  0  0  0  0
 13 14  1  0  0  0  0
 13 12  1  0  0  0  0
 14 15  1  0  0  0  0
 15 10  1  0  0  0  0
 16 20  2  0  0  0  0
 16  8  1  0  0  0  0
 17 16  1  0  0  0  0
 18 17  2  0  0  0  0
 18 19  1  0  0  0  0
 19 20  1  0  0  0  0
 22 21  2  0  0  0  0
 22 23  1  0  0  0  0
 23 24  1  0  0  0  0
 25 23  1  0  0  0  0
 25 29  1  1  0  0  0
 26 25  1  0  0  0  0
 26 27  1  0  0  0  0
 28 26  2  0  0  0  0
 30 29  1  0  0  0  0
 30 31  1  0  0  0  0
 32 31  2  0  0  0  0
 33 32  1  0  0  0  0
 34 35  1  0  0  0  0
 34 33  2  0  0  0  0
 35 30  2  0  0  0  0
 36 33  1  0  0  0  0
 36 37  1  0  0  0  0
M  END
>  <minimizedAffinity>
-7.02147245

$$$$

 OpenBabel09122218023D

 37 41  0  0  1  0  0  0  0  0999 V2000
    3.2140   -4.5560    4.8580 C   0  0  0  0  0  0  0  0  0  0  0  0
    1.9030   -4.9990    4.6610 C   0  0  0  0  0  3  0  0  0  0  0  0
    1.3720   -6.0410    5.4280 C   0  0  0  0  0  3  0  0  0  0  0  0
    2.1950   -6.6000    6.4170 C   0  0  0  0  0  0  0  0  0  0  0  0
    3.4970   -6.1560    6.6280 C   0  0  0  0  0  0  0  0  0  0  0  0
    4.0230   -5.1110    5.8560 C   0  0  0  0  0  3  0  0  0  0  0  0
    4.0970   -6.8710    7.6280 N   0  0  0  0  0  0  0  0  0  0  0  0
    3.2310   -7.7960    7.9970 C   0  0  0  0  0  0  0  0  0  0  0  0
    2.0120   -7.5870    7.3720 N   0  0  0  0  0  0  0  0  0  0  0  0
    0.7430   -8.2210    7.7130 C   0  0  0  0  0  3  0  0  0  0  0  0
   -0.3180   -7.2470    8.2560 C   0  0  0  0  0  2  0  0  0  0  0  0
   -1.5950   -7.9880    8.6550 C   0  0  0  0  0  2  0  0  0  0  0  0
   -2.1360   -8.8290    7.5020 C   0  0  0  0  0  2  0  0  0  0  0  0
   -1.0870   -9.8020    6.9710 C   0  0  0  0  0  2  0  0  0  0  0  0
    0.2000   -9.0850    6.5660 C   0  0  0  0  0  2  0  0  0  0  0  0
    3.6380   -8.8710    8.9520 C   0  0  0  0  0  0  0  0  0  0  0  0
    3.8570   -8.8640   10.3520 C   0  0  0  0  0  3  0  0  0  0  0  0
    4.1910  -10.1540   10.6970 C   0  0  0  0  0  3  0  0  0  0  0  0
    4.1760  -10.9590    9.6060 O   0  0  0  0  0  0  0  0  0  0  0  0
    3.8210  -10.1780    8.5530 C   0  0  0  0  0  3  0  0  0  0  0  0
    3.1310   -2.3420    4.1610 O   0  0  0  0  0  0  0  0  0  0  0  0
    3.6960   -3.4260    4.0390 C   0  0  0  0  0  0  0  0  0  0  0  0
    4.7190   -3.6210    3.1590 N   0  0  0  0  0  0  0  0  0  0  0  0
    5.0670   -2.7950    2.6730 H   0  0  0  0  0  0  0  0  0  0  0  0
    5.4460   -4.8480    2.7470 C   0  0  2  0  0  3  0  0  0  0  0  0
    6.9540   -4.5860    2.4260 C   0  0  0  0  0  0  0  0  0  0  0  0
    7.4930   -5.3960    1.6180 O   0  0  0  0  0  0  0  0  0  0  0  0
    7.4650   -3.5960    3.0320 O   0  0  0  0  0  1  0  0  0  0  0  0
    4.7870   -5.5770    1.5630 C   0  0  0  0  0  2  0  0  0  0  0  0
    4.3680   -7.0110    1.8200 C   0  0  0  0  0  0  0  0  0  0  0  0
    4.1040   -7.8740    0.7470 C   0  0  0  0  0  3  0  0  0  0  0  0
    3.7060   -9.1930    0.9740 C   0  0  0  0  0  3  0  0  0  0  0  0
    3.5800   -9.6540    2.2800 C   0  0  0  0  0  0  0  0  0  0  0  0
    3.8440   -8.8180    3.3580 C   0  0  0  0  0  3  0  0  0  0  0  0
    4.2340   -7.4970    3.1280 C   0  0  0  0  0  3  0  0  0  0  0  0
    3.1850  -10.9350    2.5410 O   0  0  0  0  0  0  0  0  0  0  0  0
    2.9040  -11.3250    1.6970 H   0  0  0  0  0  0  0  0  0  0  0  0
  1  6  1  0  0  0  0
  2  1  2  0  0  0  0
  2  3  1  0  0  0  0
  3  4  2  0  0  0  0
  4  5  1  0  0  0  0
  4  9  1  0  0  0  0
  5  7  1  0  0  0  0
  6  5  2  0  0  0  0
  7  8  2  0  0  0  0
  8 16  1  0  0  0  0
  9 10  1  0  0  0  0
  9  8  1  0  0  0  0
 10 11  1  0  0  0  0
 11 12  1  0  0  0  0
 13 12  1  0  0  0  0
 14 13  1  0  0  0  0
 15 14  1  0  0  0  0
 15 10  1  0  0  0  0
 16 17  1  0  0  0  0
 17 18  2  0  0  0  0
 19 18  1  0  0  0  0
 20 16  2  0  0  0  0
 20 19  1  0  0  0  0
 22 21  2  0  0  0  0
 22  1  1  0  0  0  0
 23 22  1  0  0  0  0
 24 23  1  0  0  0  0
 25 29  1  6  0  0  0
 25 23  1  0  0  0  0
 26 25  1  0  0  0  0
 26 28  1  0  0  0  0
 27 26  2  0  0  0  0
 29 30  1  0  0  0  0
 30 35  1  0  0  0  0
 31 32  1  0  0  0  0
 31 30  2  0  0  0  0
 32 33  2  0  0  0  0
 33 36  1  0  0  0  0
 33 34  1  0  0  0  0
 35 34  2  0  0  0  0
 37 36  1  0  0  0  0
M  END
>  <minimizedAffinity>
-7.01128721

$$$$

 OpenBabel09122218023D

 37 41  0  0  1  0  0  0  0  0999 V2000
    6.4500   -3.0650    7.0210 C   0  0  0  0  0  0  0  0  0  0  0  0
    7.6260   -3.1000    6.2660 C   0  0  0  0  0  3  0  0  0  0  0  0
    8.5180   -2.0230    6.2690 C   0  0  0  0  0  3  0  0  0  0  0  0
    8.1990   -0.9250    7.0820 C   0  0  0  0  0  0  0  0  0  0  0  0
    7.0370   -0.8860    7.8470 C   0  0  0  0  0  0  0  0  0  0  0  0
    6.1470   -1.9700    7.8370 C   0  0  0  0  0  3  0  0  0  0  0  0
    6.9450    0.2950    8.5300 N   0  0  0  0  0  0  0  0  0  0  0  0
    7.9790    1.0230    8.1570 C   0  0  0  0  0  0  0  0  0  0  0  0
    8.8370    0.2700    7.3720 N   0  0  0  0  0  0  0  0  0  0  0  0
   10.2000    0.6260    6.9910 C   0  0  0  0  0  3  0  0  0  0  0  0
   10.2820    1.6660    5.8580 C   0  0  0  0  0  2  0  0  0  0  0  0
   11.7340    1.9400    5.4640 C   0  0  0  0  0  2  0  0  0  0  0  0
   12.5720    2.3510    6.6710 C   0  0  0  0  0  2  0  0  0  0  0  0
   12.4990    1.3150    7.7900 C   0  0  0  0  0  2  0  0  0  0  0  0
   11.0570    1.0230    8.2000 C   0  0  0  0  0  2  0  0  0  0  0  0
    8.0860    2.4530    8.5800 C   0  0  0  0  0  0  0  0  0  0  0  0
    8.0410    3.6650    7.8470 C   0  0  0  0  0  3  0  0  0  0  0  0
    8.1670    4.6790    8.7700 C   0  0  0  0  0  3  0  0  0  0  0  0
    8.2710    4.1730   10.0240 O   0  0  0  0  0  0  0  0  0  0  0  0
    8.2020    2.8220    9.9030 C   0  0  0  0  0  3  0  0  0  0  0  0
    5.7290   -5.1020    7.8730 O   0  0  0  0  0  0  0  0  0  0  0  0
    5.5730   -4.2530    6.9990 C   0  0  0  0  0  0  0  0  0  0  0  0
    4.6510   -4.3910    6.0050 N   0  0  0  0  0  0  0  0  0  0  0  0
    4.0180   -5.1870    6.0750 H   0  0  0  0  0  0  0  0  0  0  0  0
    4.3820   -3.5830    4.7890 C   0  0  2  0  0  3  0  0  0  0  0  0
    3.1750   -2.6030    4.9590 C   0  0  0  0  0  0  0  0  0  0  0  0
    3.1890   -1.8900    6.0040 O   0  0  0  0  0  1  0  0  0  0  0  0
    2.3120   -2.6540    4.0310 O   0  0  0  0  0  0  0  0  0  0  0  0
    4.1780   -4.4360    3.5240 C   0  0  0  0  0  2  0  0  0  0  0  0
    5.4210   -4.7010    2.6980 C   0  0  0  0  0  0  0  0  0  0  0  0
    5.4380   -5.7410    1.7580 C   0  0  0  0  0  3  0  0  0  0  0  0
    6.5820   -6.0000    1.0000 C   0  0  0  0  0  3  0  0  0  0  0  0
    7.7120   -5.2090    1.1770 C   0  0  0  0  0  0  0  0  0  0  0  0
    7.7150   -4.1690    2.0970 C   0  0  0  0  0  3  0  0  0  0  0  0
    6.5730   -3.9180    2.8600 C   0  0  0  0  0  3  0  0  0  0  0  0
    8.8520   -5.4380    0.4610 O   0  0  0  0  0  0  0  0  0  0  0  0
    8.7280   -6.2760   -0.0150 H   0  0  0  0  0  0  0  0  0  0  0  0
  1  6  1  0  0  0  0
  2  3  1  0  0  0  0
  2  1  2  0  0  0  0
  3  4  2  0  0  0  0
  4  9  1  0  0  0  0
  4  5  1  0  0  0  0
  5  7  1  0  0  0  0
  6  5  2  0  0  0  0
  8  7  2  0  0  0  0
  8 16  1  0  0  0  0
  9  8  1  0  0  0  0
 10  9  1  0  0  0  0
 10 15  1  0  0  0  0
 11 10  1  0  0  0  0
 12 11  1  0  0  0  0
 12 13  1  0  0  0  0
 13 14  1  0  0  0  0
 14 15  1  0  0  0  0
 16 20  2  0  0  0  0
 17 16  1  0  0  0  0
 17 18  2  0  0  0  0
 18 19  1  0  0  0  0
 20 19  1  0  0  0  0
 22  1  1  0  0  0  0
 22 21  2  0  0  0  0
 23 24  1  0  0  0  0
 23 22  1  0  0  0  0
 25 29  1  6  0  0  0
 25 26  1  0  0  0  0
 25 23  1  0  0  0  0
 26 27  1  0  0  0  0
 28 26  2  0  0  0  0
 30 35  1  0  0  0  0
 30 29  1  0  0  0  0
 31 30  2  0  0  0  0
 32 33  2  0  0  0  0
 32 31  1  0  0  0  0
 33 34  1  0  0  0  0
 34 35  2  0  0  0  0
 36 33  1  0  0  0  0
 37 36  1  0  0  0  0
M  END
>  <minimizedAffinity>
-6.97561026

$$$$

 OpenBabel09122218023D

 37 41  0  0  1  0  0  0  0  0999 V2000
    9.0770   -1.6670    6.1030 C   0  0  0  0  0  0  0  0  0  0  0  0
    8.5180   -0.9130    7.1380 C   0  0  0  0  0  3  0  0  0  0  0  0
    7.1930   -1.1110    7.5400 C   0  0  0  0  0  3  0  0  0  0  0  0
    6.4620   -2.1130    6.8840 C   0  0  0  0  0  0  0  0  0  0  0  0
    7.0150   -2.8770    5.8600 C   0  0  0  0  0  0  0  0  0  0  0  0
    8.3440   -2.6720    5.4630 C   0  0  0  0  0  3  0  0  0  0  0  0
    6.0980   -3.7660    5.3690 N   0  0  0  0  0  0  0  0  0  0  0  0
    4.9690   -3.5280    6.0080 C   0  0  0  0  0  0  0  0  0  0  0  0
    5.1790   -2.6150    7.0280 N   0  0  0  0  0  0  0  0  0  0  0  0
    4.2550   -2.2990    8.1130 C   0  0  0  0  0  3  0  0  0  0  0  0
    4.8300   -2.5540    9.5190 C   0  0  0  0  0  2  0  0  0  0  0  0
    3.7890   -2.2670   10.6010 C   0  0  0  0  0  2  0  0  0  0  0  0
    3.2190   -0.8570   10.4690 C   0  0  0  0  0  2  0  0  0  0  0  0
    2.6400   -0.6090    9.0790 C   0  0  0  0  0  2  0  0  0  0  0  0
    3.6630   -0.8900    7.9800 C   0  0  0  0  0  2  0  0  0  0  0  0
    3.7060   -4.2050    5.5830 C   0  0  0  0  0  0  0  0  0  0  0  0
    3.1900   -5.4990    5.8420 C   0  0  0  0  0  3  0  0  0  0  0  0
    1.9670   -5.5610    5.2110 C   0  0  0  0  0  3  0  0  0  0  0  0
    1.6880   -4.3860    4.5950 O   0  0  0  0  0  0  0  0  0  0  0  0
    2.7390   -3.5610    4.8400 C   0  0  0  0  0  3  0  0  0  0  0  0
   11.3030   -2.3240    5.9960 O   0  0  0  0  0  0  0  0  0  0  0  0
   10.4930   -1.4310    5.7570 C   0  0  0  0  0  0  0  0  0  0  0  0
   10.8640   -0.2350    5.2200 N   0  0  0  0  0  0  0  0  0  0  0  0
   11.8370   -0.1470    4.9270 H   0  0  0  0  0  0  0  0  0  0  0  0
   10.1040    1.0170    4.9770 C   0  0  2  0  0  3  0  0  0  0  0  0
   10.0440    1.4130    3.4650 C   0  0  0  0  0  0  0  0  0  0  0  0
   10.7290    2.4230    3.1340 O   0  0  0  0  0  1  0  0  0  0  0  0
    9.2970    0.6780    2.7510 O   0  0  0  0  0  0  0  0  0  0  0  0
   10.6170    2.2100    5.8020 C   0  0  0  0  0  2  0  0  0  0  0  0
    9.7300    2.6510    6.9500 C   0  0  0  0  0  0  0  0  0  0  0  0
    8.6440    3.5060    6.7160 C   0  0  0  0  0  3  0  0  0  0  0  0
    7.8280    3.9270    7.7690 C   0  0  0  0  0  3  0  0  0  0  0  0
    8.0940    3.4830    9.0590 C   0  0  0  0  0  0  0  0  0  0  0  0
    9.1600    2.6290    9.3120 C   0  0  0  0  0  3  0  0  0  0  0  0
    9.9790    2.2170    8.2590 C   0  0  0  0  0  3  0  0  0  0  0  0
    7.3240    3.8800   10.1150 O   0  0  0  0  0  0  0  0  0  0  0  0
    6.7300    4.5770    9.7890 H   0  0  0  0  0  0  0  0  0  0  0  0
  1  2  1  0  0  0  0
  2  3  2  0  0  0  0
  4  9  1  0  0  0  0
  4  3  1  0  0  0  0
  5  4  2  0  0  0  0
  6  5  1  0  0  0  0
  6  1  2  0  0  0  0
  7  5  1  0  0  0  0
  7  8  2  0  0  0  0
  8  9  1  0  0  0  0
  9 10  1  0  0  0  0
 10 11  1  0  0  0  0
 11 12  1  0  0  0  0
 13 12  1  0  0  0  0
 14 13  1  0  0  0  0
 15 10  1  0  0  0  0
 15 14  1  0  0  0  0
 16 17  1  0  0  0  0
 16  8  1  0  0  0  0
 18 17  2  0  0  0  0
 19 20  1  0  0  0  0
 19 18  1  0  0  0  0
 20 16  2  0  0  0  0
 22 21  2  0  0  0  0
 22  1  1  0  0  0  0
 23 22  1  0  0  0  0
 24 23  1  0  0  0  0
 25 23  1  0  0  0  0
 25 29  1  1  0  0  0
 26 25  1  0  0  0  0
 27 26  1  0  0  0  0
 28 26  2  0  0  0  0
 29 30  1  0  0  0  0
 30 35  1  0  0  0  0
 31 30  2  0  0  0  0
 31 32  1  0  0  0  0
 32 33  2  0  0  0  0
 33 34  1  0  0  0  0
 33 36  1  0  0  0  0
 35 34  2  0  0  0  0
 37 36  1  0  0  0  0
M  END
>  <minimizedAffinity>
-6.87050104

$$$$
