
 OpenBabel09122222393D

 37 41  0  0  1  0  0  0  0  0999 V2000
    3.8370   -4.2450    6.0070 C   0  0  0  0  0  0  0  0  0  0  0  0
    3.2460   -5.5040    5.8630 C   0  0  0  0  0  3  0  0  0  0  0  0
    3.5770   -6.3370    4.7900 C   0  0  0  0  0  3  0  0  0  0  0  0
    4.5450   -5.8720    3.8860 C   0  0  0  0  0  0  0  0  0  0  0  0
    5.1470   -4.6260    4.0290 C   0  0  0  0  0  0  0  0  0  0  0  0
    4.8100   -3.7960    5.1080 C   0  0  0  0  0  3  0  0  0  0  0  0
    6.0340   -4.3970    3.0130 N   0  0  0  0  0  0  0  0  0  0  0  0
    5.9480   -5.4330    2.2020 C   0  0  0  0  0  0  0  0  0  0  0  0
    5.1450   -6.4140    2.7610 N   0  0  0  0  0  0  0  0  0  0  0  0
    5.0180   -7.7950    2.3060 C   0  0  0  0  0  3  0  0  0  0  0  0
    5.2690   -8.8420    3.4070 C   0  0  0  0  0  2  0  0  0  0  0  0
    5.1870  -10.2620    2.8470 C   0  0  0  0  0  2  0  0  0  0  0  0
    3.8630  -10.5030    2.1270 C   0  0  0  0  0  2  0  0  0  0  0  0
    3.6200   -9.4720    1.0290 C   0  0  0  0  0  2  0  0  0  0  0  0
    3.6980   -8.0430    1.5650 C   0  0  0  0  0  2  0  0  0  0  0  0
    6.6560   -5.4210    0.8860 C   0  0  0  0  0  0  0  0  0  0  0  0
    6.2050   -5.6560   -0.4370 C   0  0  0  0  0  3  0  0  0  0  0  0
    7.3000   -5.4820   -1.2540 C   0  0  0  0  0  3  0  0  0  0  0  0
    8.3910   -5.1410   -0.5260 O   0  0  0  0  0  0  0  0  0  0  0  0
    7.9890   -5.0870    0.7710 C   0  0  0  0  0  3  0  0  0  0  0  0
    2.4420   -2.7610    7.1240 O   0  0  0  0  0  0  0  0  0  0  0  0
    3.4680   -3.4350    7.1850 C   0  0  0  0  0  0  0  0  0  0  0  0
    4.2800   -3.4300    8.2790 N   0  0  0  0  0  0  0  0  0  0  0  0
    3.9460   -2.9170    9.0950 H   0  0  0  0  0  0  0  0  0  0  0  0
    5.6120   -4.0400    8.5240 C   0  0  2  0  0  3  0  0  0  0  0  0
    5.5310   -5.3950    9.2990 C   0  0  0  0  0  0  0  0  0  0  0  0
    5.7390   -5.3300   10.5450 O   0  0  0  0  0  1  0  0  0  0  0  0
    5.2820   -6.4080    8.5770 O   0  0  0  0  0  0  0  0  0  0  0  0
    6.5910   -3.0940    9.2420 C   0  0  0  0  0  2  0  0  0  0  0  0
    7.8810   -2.7930    8.5030 C   0  0  0  0  0  0  0  0  0  0  0  0
    9.1180   -3.0090    9.1250 C   0  0  0  0  0  3  0  0  0  0  0  0
   10.3110   -2.7240    8.4570 C   0  0  0  0  0  3  0  0  0  0  0  0
   10.2660   -2.2300    7.1590 C   0  0  0  0  0  0  0  0  0  0  0  0
    9.0510   -2.0160    6.5210 C   0  0  0  0  0  3  0  0  0  0  0  0
    7.8600   -2.2930    7.1940 C   0  0  0  0  0  3  0  0  0  0  0  0
   11.4120   -1.9310    6.4770 O   0  0  0  0  0  0  0  0  0  0  0  0
   12.1460   -1.9970    7.1100 H   0  0  0  0  0  0  0  0  0  0  0  0
  1 22  1  0  0  0  0
  2  1  1  0  0  0  0
  3  2  2  0  0  0  0
  4  5  2  0  0  0  0
  4  3  1  0  0  0  0
  5  6  1  0  0  0  0
  6  1  2  0  0  0  0
  7  5  1  0  0  0  0
  8  9  1  0  0  0  0
  8  7  2  0  0  0  0
  9  4  1  0  0  0  0
 10  9  1  0  0  0  0
 10 11  1  0  0  0  0
 12 11  1  0  0  0  0
 13 12  1  0  0  0  0
 14 15  1  0  0  0  0
 14 13  1  0  0  0  0
 15 10  1  0  0  0  0
 16  8  1  0  0  0  0
 17 16  1  0  0  0  0
 18 19  1  0  0  0  0
 18 17  2  0  0  0  0
 19 20  1  0  0  0  0
 20 16  2  0  0  0  0
 21 22  2  0  0  0  0
 22 23  1  0  0  0  0
 23 25  1  0  0  0  0
 23 24  1  0  0  0  0
 25 29  1  1  0  0  0
 25 26  1  0  0  0  0
 26 27  1  0  0  0  0
 28 26  2  0  0  0  0
 30 31  1  0  0  0  0
 30 29  1  0  0  0  0
 32 31  2  0  0  0  0
 33 32  1  0  0  0  0
 34 33  2  0  0  0  0
 34 35  1  0  0  0  0
 35 30  2  0  0  0  0
 36 37  1  0  0  0  0
 36 33  1  0  0  0  0
M  END
>  <minimizedAffinity>
-7.26479292

$$$$
