
 OpenBabel09122222393D

 37 41  0  0  1  0  0  0  0  0999 V2000
    3.2140   -4.5560    4.8580 C   0  0  0  0  0  0  0  0  0  0  0  0
    1.9030   -4.9990    4.6610 C   0  0  0  0  0  3  0  0  0  0  0  0
    1.3720   -6.0410    5.4280 C   0  0  0  0  0  3  0  0  0  0  0  0
    2.1950   -6.6000    6.4170 C   0  0  0  0  0  0  0  0  0  0  0  0
    3.4970   -6.1560    6.6280 C   0  0  0  0  0  0  0  0  0  0  0  0
    4.0230   -5.1110    5.8560 C   0  0  0  0  0  3  0  0  0  0  0  0
    4.0970   -6.8710    7.6280 N   0  0  0  0  0  0  0  0  0  0  0  0
    3.2310   -7.7960    7.9970 C   0  0  0  0  0  0  0  0  0  0  0  0
    2.0120   -7.5870    7.3720 N   0  0  0  0  0  0  0  0  0  0  0  0
    0.7430   -8.2210    7.7130 C   0  0  0  0  0  3  0  0  0  0  0  0
   -0.3180   -7.2470    8.2560 C   0  0  0  0  0  2  0  0  0  0  0  0
   -1.5950   -7.9880    8.6550 C   0  0  0  0  0  2  0  0  0  0  0  0
   -2.1360   -8.8290    7.5020 C   0  0  0  0  0  2  0  0  0  0  0  0
   -1.0870   -9.8020    6.9710 C   0  0  0  0  0  2  0  0  0  0  0  0
    0.2000   -9.0850    6.5660 C   0  0  0  0  0  2  0  0  0  0  0  0
    3.6380   -8.8710    8.9520 C   0  0  0  0  0  0  0  0  0  0  0  0
    3.8570   -8.8640   10.3520 C   0  0  0  0  0  3  0  0  0  0  0  0
    4.1910  -10.1540   10.6970 C   0  0  0  0  0  3  0  0  0  0  0  0
    4.1760  -10.9590    9.6060 O   0  0  0  0  0  0  0  0  0  0  0  0
    3.8210  -10.1780    8.5530 C   0  0  0  0  0  3  0  0  0  0  0  0
    3.1310   -2.3420    4.1610 O   0  0  0  0  0  0  0  0  0  0  0  0
    3.6960   -3.4260    4.0390 C   0  0  0  0  0  0  0  0  0  0  0  0
    4.7190   -3.6210    3.1590 N   0  0  0  0  0  0  0  0  0  0  0  0
    5.0670   -2.7950    2.6730 H   0  0  0  0  0  0  0  0  0  0  0  0
    5.4460   -4.8480    2.7470 C   0  0  2  0  0  3  0  0  0  0  0  0
    6.9540   -4.5860    2.4260 C   0  0  0  0  0  0  0  0  0  0  0  0
    7.4930   -5.3960    1.6180 O   0  0  0  0  0  0  0  0  0  0  0  0
    7.4650   -3.5960    3.0320 O   0  0  0  0  0  1  0  0  0  0  0  0
    4.7870   -5.5770    1.5630 C   0  0  0  0  0  2  0  0  0  0  0  0
    4.3680   -7.0110    1.8200 C   0  0  0  0  0  0  0  0  0  0  0  0
    4.1040   -7.8740    0.7470 C   0  0  0  0  0  3  0  0  0  0  0  0
    3.7060   -9.1930    0.9740 C   0  0  0  0  0  3  0  0  0  0  0  0
    3.5800   -9.6540    2.2800 C   0  0  0  0  0  0  0  0  0  0  0  0
    3.8440   -8.8180    3.3580 C   0  0  0  0  0  3  0  0  0  0  0  0
    4.2340   -7.4970    3.1280 C   0  0  0  0  0  3  0  0  0  0  0  0
    3.1850  -10.9350    2.5410 O   0  0  0  0  0  0  0  0  0  0  0  0
    2.9040  -11.3250    1.6970 H   0  0  0  0  0  0  0  0  0  0  0  0
  1  6  1  0  0  0  0
  2  1  2  0  0  0  0
  2  3  1  0  0  0  0
  3  4  2  0  0  0  0
  4  5  1  0  0  0  0
  4  9  1  0  0  0  0
  5  7  1  0  0  0  0
  6  5  2  0  0  0  0
  7  8  2  0  0  0  0
  8 16  1  0  0  0  0
  9 10  1  0  0  0  0
  9  8  1  0  0  0  0
 10 11  1  0  0  0  0
 11 12  1  0  0  0  0
 13 12  1  0  0  0  0
 14 13  1  0  0  0  0
 15 14  1  0  0  0  0
 15 10  1  0  0  0  0
 16 17  1  0  0  0  0
 17 18  2  0  0  0  0
 19 18  1  0  0  0  0
 20 16  2  0  0  0  0
 20 19  1  0  0  0  0
 22 21  2  0  0  0  0
 22  1  1  0  0  0  0
 23 22  1  0  0  0  0
 24 23  1  0  0  0  0
 25 29  1  6  0  0  0
 25 23  1  0  0  0  0
 26 25  1  0  0  0  0
 26 28  1  0  0  0  0
 27 26  2  0  0  0  0
 29 30  1  0  0  0  0
 30 35  1  0  0  0  0
 31 32  1  0  0  0  0
 31 30  2  0  0  0  0
 32 33  2  0  0  0  0
 33 36  1  0  0  0  0
 33 34  1  0  0  0  0
 35 34  2  0  0  0  0
 37 36  1  0  0  0  0
M  END
>  <minimizedAffinity>
-7.01128721

$$$$
