
 OpenBabel09122222393D

 37 41  0  0  1  0  0  0  0  0999 V2000
    2.8160   -3.2280    4.7710 C   0  0  0  0  0  0  0  0  0  0  0  0
    3.7690   -2.7820    3.8500 C   0  0  0  0  0  3  0  0  0  0  0  0
    4.5200   -3.6870    3.0930 C   0  0  0  0  0  3  0  0  0  0  0  0
    4.2570   -5.0530    3.2740 C   0  0  0  0  0  0  0  0  0  0  0  0
    3.3020   -5.5060    4.1790 C   0  0  0  0  0  0  0  0  0  0  0  0
    2.5530   -4.5920    4.9340 C   0  0  0  0  0  3  0  0  0  0  0  0
    3.2500   -6.8730    4.1860 N   0  0  0  0  0  0  0  0  0  0  0  0
    4.1960   -7.2860    3.3660 C   0  0  0  0  0  0  0  0  0  0  0  0
    4.7500   -6.2090    2.6920 N   0  0  0  0  0  0  0  0  0  0  0  0
    5.6240   -6.2730    1.5250 C   0  0  0  0  0  3  0  0  0  0  0  0
    4.8950   -6.0580    0.1850 C   0  0  0  0  0  2  0  0  0  0  0  0
    5.8560   -6.2050   -0.9950 C   0  0  0  0  0  2  0  0  0  0  0  0
    7.0630   -5.2810   -0.8520 C   0  0  0  0  0  2  0  0  0  0  0  0
    7.7900   -5.5020    0.4710 C   0  0  0  0  0  2  0  0  0  0  0  0
    6.8500   -5.3610    1.6670 C   0  0  0  0  0  2  0  0  0  0  0  0
    4.5360   -8.7390    3.2770 C   0  0  0  0  0  0  0  0  0  0  0  0
    3.7450   -9.8830    3.0060 C   0  0  0  0  0  3  0  0  0  0  0  0
    4.6040  -10.9600    3.0290 C   0  0  0  0  0  3  0  0  0  0  0  0
    5.8730  -10.5540    3.2790 O   0  0  0  0  0  0  0  0  0  0  0  0
    5.8280   -9.2020    3.4110 C   0  0  0  0  0  3  0  0  0  0  0  0
    1.1390   -1.6260    4.9050 O   0  0  0  0  0  0  0  0  0  0  0  0
    2.0330   -2.2160    5.5070 C   0  0  0  0  0  0  0  0  0  0  0  0
    2.3400   -1.9440    6.8070 N   0  0  0  0  0  0  0  0  0  0  0  0
    1.7240   -1.2950    7.2960 H   0  0  0  0  0  0  0  0  0  0  0  0
    3.4420   -2.4170    7.6820 C   0  0  2  0  0  3  0  0  0  0  0  0
    2.9380   -2.9860    9.0480 C   0  0  0  0  0  0  0  0  0  0  0  0
    3.7950   -3.6160    9.7320 O   0  0  0  0  0  1  0  0  0  0  0  0
    1.7160   -2.7590    9.3020 O   0  0  0  0  0  0  0  0  0  0  0  0
    4.5190   -1.3470    7.9350 C   0  0  0  0  0  2  0  0  0  0  0  0
    5.8920   -1.6420    7.3620 C   0  0  0  0  0  0  0  0  0  0  0  0
    6.9810   -0.8170    7.6740 C   0  0  0  0  0  3  0  0  0  0  0  0
    8.2460   -1.0740    7.1420 C   0  0  0  0  0  3  0  0  0  0  0  0
    8.4240   -2.1660    6.3000 C   0  0  0  0  0  0  0  0  0  0  0  0
    7.3610   -3.0010    5.9830 C   0  0  0  0  0  3  0  0  0  0  0  0
    6.0950   -2.7370    6.5100 C   0  0  0  0  0  3  0  0  0  0  0  0
    9.6440   -2.4440    5.7530 O   0  0  0  0  0  0  0  0  0  0  0  0
   10.2260   -1.6920    5.9540 H   0  0  0  0  0  0  0  0  0  0  0  0
  1  6  1  0  0  0  0
  1 22  1  0  0  0  0
  2  1  2  0  0  0  0
  3  4  2  0  0  0  0
  3  2  1  0  0  0  0
  4  5  1  0  0  0  0
  5  7  1  0  0  0  0
  5  6  2  0  0  0  0
  8  7  2  0  0  0  0
  9  4  1  0  0  0  0
  9  8  1  0  0  0  0
 10 15  1  0  0  0  0
 10  9  1  0  0  0  0
 11 10  1  0  0  0  0
 12 13  1  0  0  0  0
 12 11  1  0  0  0  0
 13 14  1  0  0  0  0
 14 15  1  0  0  0  0
 16  8  1  0  0  0  0
 16 20  2  0  0  0  0
 17 18  2  0  0  0  0
 17 16  1  0  0  0  0
 18 19  1  0  0  0  0
 19 20  1  0  0  0  0
 21 22  2  0  0  0  0
 22 23  1  0  0  0  0
 23 24  1  0  0  0  0
 23 25  1  0  0  0  0
 25 29  1  1  0  0  0
 25 26  1  0  0  0  0
 26 28  2  0  0  0  0
 26 27  1  0  0  0  0
 30 31  1  0  0  0  0
 30 29  1  0  0  0  0
 32 31  2  0  0  0  0
 33 32  1  0  0  0  0
 34 33  2  0  0  0  0
 34 35  1  0  0  0  0
 35 30  2  0  0  0  0
 36 37  1  0  0  0  0
 36 33  1  0  0  0  0
M  END
>  <minimizedAffinity>
-8.46229935

$$$$
