
 OpenBabel09122222393D

 37 41  0  0  1  0  0  0  0  0999 V2000
    5.3240   -6.5160    1.0970 C   0  0  0  0  0  0  0  0  0  0  0  0
    5.2080   -5.7070    2.2310 C   0  0  0  0  0  3  0  0  0  0  0  0
    6.1650   -4.7290    2.5190 C   0  0  0  0  0  3  0  0  0  0  0  0
    7.2240   -4.5740    1.6110 C   0  0  0  0  0  0  0  0  0  0  0  0
    7.3400   -5.3680    0.4730 C   0  0  0  0  0  0  0  0  0  0  0  0
    6.3760   -6.3470    0.1920 C   0  0  0  0  0  3  0  0  0  0  0  0
    8.4630   -5.0400   -0.2340 N   0  0  0  0  0  0  0  0  0  0  0  0
    9.0890   -4.1150    0.4680 C   0  0  0  0  0  0  0  0  0  0  0  0
    8.3050   -3.7110    1.5360 N   0  0  0  0  0  0  0  0  0  0  0  0
    8.5220   -2.5390    2.3770 C   0  0  0  0  0  3  0  0  0  0  0  0
    9.4090   -2.8090    3.6080 C   0  0  0  0  0  2  0  0  0  0  0  0
    9.5390   -1.5580    4.4780 C   0  0  0  0  0  2  0  0  0  0  0  0
   10.0390   -0.3640    3.6700 C   0  0  0  0  0  2  0  0  0  0  0  0
    9.1540   -0.0910    2.4570 C   0  0  0  0  0  2  0  0  0  0  0  0
    9.0080   -1.3270    1.5710 C   0  0  0  0  0  2  0  0  0  0  0  0
   10.4560   -3.6610    0.0670 C   0  0  0  0  0  0  0  0  0  0  0  0
   11.7140   -3.7560    0.7110 C   0  0  0  0  0  3  0  0  0  0  0  0
   12.6300   -3.1840   -0.1440 C   0  0  0  0  0  3  0  0  0  0  0  0
   12.0230   -2.7590   -1.2790 O   0  0  0  0  0  0  0  0  0  0  0  0
   10.7060   -3.0670   -1.1520 C   0  0  0  0  0  3  0  0  0  0  0  0
    3.6050   -7.3890   -0.2000 O   0  0  0  0  0  0  0  0  0  0  0  0
    4.2560   -7.5030    0.8360 C   0  0  0  0  0  0  0  0  0  0  0  0
    4.0030   -8.4790    1.7520 N   0  0  0  0  0  0  0  0  0  0  0  0
    3.3110   -9.1810    1.4930 H   0  0  0  0  0  0  0  0  0  0  0  0
    4.5520   -8.7260    3.1100 C   0  0  2  0  0  3  0  0  0  0  0  0
    5.9560   -9.4140    3.0860 C   0  0  0  0  0  0  0  0  0  0  0  0
    5.9490  -10.6790    3.1080 O   0  0  0  0  0  1  0  0  0  0  0  0
    6.9410   -8.6150    3.0650 O   0  0  0  0  0  0  0  0  0  0  0  0
    3.6000   -9.5290    4.0140 C   0  0  0  0  0  2  0  0  0  0  0  0
    2.3340   -8.8130    4.4410 C   0  0  0  0  0  0  0  0  0  0  0  0
    2.4040   -7.5490    5.0420 C   0  0  0  0  0  3  0  0  0  0  0  0
    1.2440   -6.8870    5.4500 C   0  0  0  0  0  3  0  0  0  0  0  0
    0.0070   -7.4880    5.2470 C   0  0  0  0  0  0  0  0  0  0  0  0
   -0.0870   -8.7370    4.6460 C   0  0  0  0  0  3  0  0  0  0  0  0
    1.0750   -9.4010    4.2470 C   0  0  0  0  0  3  0  0  0  0  0  0
   -1.1480   -6.8760    5.6400 O   0  0  0  0  0  0  0  0  0  0  0  0
   -0.8950   -6.0980    6.1650 H   0  0  0  0  0  0  0  0  0  0  0  0
  1  2  1  0  0  0  0
  2  3  2  0  0  0  0
  4  3  1  0  0  0  0
  5  4  2  0  0  0  0
  6  5  1  0  0  0  0
  6  1  2  0  0  0  0
  7  8  2  0  0  0  0
  7  5  1  0  0  0  0
  8  9  1  0  0  0  0
  9  4  1  0  0  0  0
  9 10  1  0  0  0  0
 10 11  1  0  0  0  0
 11 12  1  0  0  0  0
 13 12  1  0  0  0  0
 14 13  1  0  0  0  0
 15 10  1  0  0  0  0
 15 14  1  0  0  0  0
 16  8  1  0  0  0  0
 16 17  1  0  0  0  0
 18 17  2  0  0  0  0
 19 20  1  0  0  0  0
 19 18  1  0  0  0  0
 20 16  2  0  0  0  0
 21 22  2  0  0  0  0
 22  1  1  0  0  0  0
 22 23  1  0  0  0  0
 23 25  1  0  0  0  0
 24 23  1  0  0  0  0
 25 29  1  1  0  0  0
 26 27  1  0  0  0  0
 26 25  1  0  0  0  0
 28 26  2  0  0  0  0
 29 30  1  0  0  0  0
 30 31  1  0  0  0  0
 31 32  2  0  0  0  0
 33 32  1  0  0  0  0
 33 36  1  0  0  0  0
 34 33  2  0  0  0  0
 35 30  2  0  0  0  0
 35 34  1  0  0  0  0
 36 37  1  0  0  0  0
M  END
>  <minimizedAffinity>
-7.48218107

$$$$
