
 OpenBabel09122222393D

 37 41  0  0  1  0  0  0  0  0999 V2000
    9.6490   -1.8650    6.9030 C   0  0  0  0  0  0  0  0  0  0  0  0
   10.4910   -1.4210    5.8790 C   0  0  0  0  0  3  0  0  0  0  0  0
   10.2040   -1.6970    4.5390 C   0  0  0  0  0  3  0  0  0  0  0  0
    9.0260   -2.4070    4.2640 C   0  0  0  0  0  0  0  0  0  0  0  0
    8.1740   -2.8410    5.2760 C   0  0  0  0  0  0  0  0  0  0  0  0
    8.4700   -2.5620    6.6170 C   0  0  0  0  0  3  0  0  0  0  0  0
    7.1120   -3.5260    4.7540 N   0  0  0  0  0  0  0  0  0  0  0  0
    7.3140   -3.5940    3.4520 C   0  0  0  0  0  0  0  0  0  0  0  0
    8.4030   -2.8160    3.0960 N   0  0  0  0  0  0  0  0  0  0  0  0
    8.7810   -2.4210    1.7430 C   0  0  0  0  0  3  0  0  0  0  0  0
    9.2700   -0.9650    1.6290 C   0  0  0  0  0  2  0  0  0  0  0  0
    9.5830   -0.6010    0.1780 C   0  0  0  0  0  2  0  0  0  0  0  0
   10.5750   -1.5810   -0.4440 C   0  0  0  0  0  2  0  0  0  0  0  0
   10.0850   -3.0220   -0.3400 C   0  0  0  0  0  2  0  0  0  0  0  0
    9.7640   -3.4100    1.1020 C   0  0  0  0  0  2  0  0  0  0  0  0
    6.4270   -4.4380    2.5950 C   0  0  0  0  0  0  0  0  0  0  0  0
    6.7080   -5.3470    1.5450 C   0  0  0  0  0  3  0  0  0  0  0  0
    5.4930   -5.8540    1.1380 C   0  0  0  0  0  3  0  0  0  0  0  0
    4.4850   -5.3300    1.8780 O   0  0  0  0  0  0  0  0  0  0  0  0
    5.0600   -4.4850    2.7730 C   0  0  0  0  0  3  0  0  0  0  0  0
   10.9830   -2.0320    8.7970 O   0  0  0  0  0  0  0  0  0  0  0  0
    9.9940   -1.5050    8.2930 C   0  0  0  0  0  0  0  0  0  0  0  0
    9.2000   -0.6370    8.9800 N   0  0  0  0  0  0  0  0  0  0  0  0
    9.5200   -0.3600    9.9070 H   0  0  0  0  0  0  0  0  0  0  0  0
    7.9050    0.0030    8.6340 C   0  0  2  0  0  3  0  0  0  0  0  0
    8.0310    1.5400    8.3770 C   0  0  0  0  0  0  0  0  0  0  0  0
    7.6920    2.2880    9.3390 O   0  0  0  0  0  1  0  0  0  0  0  0
    8.4450    1.8550    7.2200 O   0  0  0  0  0  0  0  0  0  0  0  0
    6.8010   -0.2570    9.6750 C   0  0  0  0  0  2  0  0  0  0  0  0
    5.4110   -0.4960    9.1190 C   0  0  0  0  0  0  0  0  0  0  0  0
    4.2810   -0.2470    9.9090 C   0  0  0  0  0  3  0  0  0  0  0  0
    2.9970   -0.4760    9.4090 C   0  0  0  0  0  3  0  0  0  0  0  0
    2.8420   -0.9480    8.1110 C   0  0  0  0  0  0  0  0  0  0  0  0
    3.9490   -1.1940    7.3080 C   0  0  0  0  0  3  0  0  0  0  0  0
    5.2310   -0.9730    7.8130 C   0  0  0  0  0  3  0  0  0  0  0  0
    1.6030   -1.1920    7.5910 O   0  0  0  0  0  0  0  0  0  0  0  0
    0.9660   -1.1100    8.3210 H   0  0  0  0  0  0  0  0  0  0  0  0
  1 22  1  0  0  0  0
  2  1  2  0  0  0  0
  3  2  1  0  0  0  0
  4  3  2  0  0  0  0
  4  5  1  0  0  0  0
  5  6  2  0  0  0  0
  6  1  1  0  0  0  0
  7  5  1  0  0  0  0
  8  7  2  0  0  0  0
  9  8  1  0  0  0  0
  9  4  1  0  0  0  0
 10  9  1  0  0  0  0
 11 10  1  0  0  0  0
 12 11  1  0  0  0  0
 13 14  1  0  0  0  0
 13 12  1  0  0  0  0
 14 15  1  0  0  0  0
 15 10  1  0  0  0  0
 16 20  2  0  0  0  0
 16  8  1  0  0  0  0
 17 16  1  0  0  0  0
 18 17  2  0  0  0  0
 18 19  1  0  0  0  0
 19 20  1  0  0  0  0
 22 21  2  0  0  0  0
 22 23  1  0  0  0  0
 23 24  1  0  0  0  0
 25 23  1  0  0  0  0
 25 29  1  1  0  0  0
 26 25  1  0  0  0  0
 26 27  1  0  0  0  0
 28 26  2  0  0  0  0
 30 29  1  0  0  0  0
 30 31  1  0  0  0  0
 32 31  2  0  0  0  0
 33 32  1  0  0  0  0
 34 35  1  0  0  0  0
 34 33  2  0  0  0  0
 35 30  2  0  0  0  0
 36 33  1  0  0  0  0
 36 37  1  0  0  0  0
M  END
>  <minimizedAffinity>
-7.02147245

$$$$
