
 OpenBabel09122222393D

 37 41  0  0  1  0  0  0  0  0999 V2000
    2.7590   -3.3970    5.8300 C   0  0  0  0  0  0  0  0  0  0  0  0
    2.4010   -4.6770    6.2660 C   0  0  0  0  0  3  0  0  0  0  0  0
    2.7610   -5.8140    5.5350 C   0  0  0  0  0  3  0  0  0  0  0  0
    3.5170   -5.6200    4.3690 C   0  0  0  0  0  0  0  0  0  0  0  0
    3.8880   -4.3500    3.9350 C   0  0  0  0  0  0  0  0  0  0  0  0
    3.5230   -3.2150    4.6730 C   0  0  0  0  0  3  0  0  0  0  0  0
    4.5980   -4.4250    2.7680 N   0  0  0  0  0  0  0  0  0  0  0  0
    4.6170   -5.6980    2.4240 C   0  0  0  0  0  0  0  0  0  0  0  0
    4.0790   -6.4760    3.4370 N   0  0  0  0  0  0  0  0  0  0  0  0
    4.1630   -7.9280    3.5530 C   0  0  0  0  0  3  0  0  0  0  0  0
    3.0520   -8.6820    2.7970 C   0  0  0  0  0  2  0  0  0  0  0  0
    3.1610  -10.1900    3.0170 C   0  0  0  0  0  2  0  0  0  0  0  0
    4.5480  -10.7100    2.6490 C   0  0  0  0  0  2  0  0  0  0  0  0
    5.6480   -9.9710    3.4050 C   0  0  0  0  0  2  0  0  0  0  0  0
    5.5590   -8.4590    3.2020 C   0  0  0  0  0  2  0  0  0  0  0  0
    5.1590   -6.1120    1.0940 C   0  0  0  0  0  0  0  0  0  0  0  0
    4.5630   -6.7700   -0.0100 C   0  0  0  0  0  3  0  0  0  0  0  0
    5.5400   -6.8650   -0.9760 C   0  0  0  0  0  3  0  0  0  0  0  0
    6.6930   -6.2950   -0.5470 O   0  0  0  0  0  0  0  0  0  0  0  0
    6.4490   -5.8230    0.7040 C   0  0  0  0  0  3  0  0  0  0  0  0
    2.0000   -1.2200    6.1100 O   0  0  0  0  0  0  0  0  0  0  0  0
    2.3790   -2.2450    6.6710 C   0  0  0  0  0  0  0  0  0  0  0  0
    2.4870   -2.3360    8.0270 N   0  0  0  0  0  0  0  0  0  0  0  0
    2.1410   -1.5440    8.5680 H   0  0  0  0  0  0  0  0  0  0  0  0
    3.0410   -3.3990    8.9040 C   0  0  2  0  0  3  0  0  0  0  0  0
    2.0790   -3.7920   10.0720 C   0  0  0  0  0  0  0  0  0  0  0  0
    1.7470   -2.8520   10.8510 O   0  0  0  0  0  1  0  0  0  0  0  0
    1.7570   -5.0180   10.1080 O   0  0  0  0  0  0  0  0  0  0  0  0
    4.4290   -3.0550    9.4740 C   0  0  0  0  0  2  0  0  0  0  0  0
    5.4780   -2.6470    8.4580 C   0  0  0  0  0  0  0  0  0  0  0  0
    5.9550   -3.5760    7.5220 C   0  0  0  0  0  3  0  0  0  0  0  0
    6.9300   -3.2130    6.5900 C   0  0  0  0  0  3  0  0  0  0  0  0
    7.4240   -1.9140    6.5880 C   0  0  0  0  0  0  0  0  0  0  0  0
    6.9600   -0.9750    7.5010 C   0  0  0  0  0  3  0  0  0  0  0  0
    5.9910   -1.3430    8.4380 C   0  0  0  0  0  3  0  0  0  0  0  0
    8.3830   -1.5250    5.6980 O   0  0  0  0  0  0  0  0  0  0  0  0
    8.6940   -2.3260    5.2440 H   0  0  0  0  0  0  0  0  0  0  0  0
  1  2  1  0  0  0  0
  1 22  1  0  0  0  0
  3  2  2  0  0  0  0
  4  3  1  0  0  0  0
  5  4  2  0  0  0  0
  5  6  1  0  0  0  0
  6  1  2  0  0  0  0
  7  5  1  0  0  0  0
  8  7  2  0  0  0  0
  8  9  1  0  0  0  0
  9 10  1  0  0  0  0
  9  4  1  0  0  0  0
 11 12  1  0  0  0  0
 11 10  1  0  0  0  0
 13 12  1  0  0  0  0
 13 14  1  0  0  0  0
 15 14  1  0  0  0  0
 15 10  1  0  0  0  0
 16  8  1  0  0  0  0
 17 16  1  0  0  0  0
 18 19  1  0  0  0  0
 18 17  2  0  0  0  0
 19 20  1  0  0  0  0
 20 16  2  0  0  0  0
 21 22  2  0  0  0  0
 22 23  1  0  0  0  0
 23 24  1  0  0  0  0
 23 25  1  0  0  0  0
 25 29  1  1  0  0  0
 25 26  1  0  0  0  0
 26 28  2  0  0  0  0
 26 27  1  0  0  0  0
 30 29  1  0  0  0  0
 31 30  2  0  0  0  0
 32 31  1  0  0  0  0
 33 32  2  0  0  0  0
 33 34  1  0  0  0  0
 34 35  2  0  0  0  0
 35 30  1  0  0  0  0
 36 33  1  0  0  0  0
 37 36  1  0  0  0  0
M  END
>  <minimizedAffinity>
-7.31235743

$$$$
