
 OpenBabel09122222393D

 42 47  0  0  0  0  0  0  0  0999 V2000
   10.6030   -0.7530    5.4580 C   0  0  0  0  0  0  0  0  0  0  0  0
   10.0130   -0.1850    4.3270 C   0  0  0  0  0  3  0  0  0  0  0  0
    9.4090   -0.9910    3.3570 C   0  0  0  0  0  3  0  0  0  0  0  0
    9.4010   -2.3790    3.5020 C   0  0  0  0  0  0  0  0  0  0  0  0
    9.9430   -2.9440    4.6630 C   0  0  0  0  0  3  0  0  0  0  0  0
   10.5480   -2.1360    5.6340 C   0  0  0  0  0  3  0  0  0  0  0  0
    8.8030   -3.2360    2.4840 C   0  0  0  0  0  0  0  0  0  0  0  0
    7.7600   -4.0110    2.7160 N   0  0  0  0  0  0  0  0  0  0  0  0
    7.4750   -4.6420    1.5320 C   0  0  0  0  0  0  0  0  0  0  0  0
    6.4520   -5.5550    1.2270 C   0  0  0  0  0  3  0  0  0  0  0  0
    6.3380   -6.0720   -0.0800 C   0  0  0  0  0  0  0  0  0  0  0  0
    7.2650   -5.6610   -1.0510 C   0  0  0  0  0  3  0  0  0  0  0  0
    8.2950   -4.7550   -0.7660 C   0  0  0  0  0  3  0  0  0  0  0  0
    8.3740   -4.2610    0.5430 C   0  0  0  0  0  0  0  0  0  0  0  0
    9.2310   -3.3720    1.1730 N   0  0  0  0  0  0  0  0  0  0  0  0
   10.3390   -2.7070    0.4900 C   0  0  0  0  0  3  0  0  0  0  0  0
   11.4060   -3.7020    0.0100 C   0  0  0  0  0  2  0  0  0  0  0  0
   12.6270   -2.9790   -0.5580 C   0  0  0  0  0  2  0  0  0  0  0  0
   12.2410   -1.9820   -1.6480 C   0  0  0  0  0  2  0  0  0  0  0  0
   11.1820   -0.9930   -1.1650 C   0  0  0  0  0  2  0  0  0  0  0  0
    9.9500   -1.7200   -0.6230 C   0  0  0  0  0  2  0  0  0  0  0  0
    5.2320   -7.0490   -0.4360 C   0  0  0  0  0  0  0  0  0  0  0  0
    4.0810   -6.8370    0.0600 O   0  0  0  0  0  1  0  0  0  0  0  0
    5.5380   -8.0100   -1.2130 O   0  0  0  0  0  0  0  0  0  0  0  0
   11.1710    0.1480    6.3170 O   0  0  0  0  0  0  0  0  0  0  0  0
   11.1690   -0.1630    7.7180 C   0  0  0  0  0  2  0  0  0  0  0  0
    9.1240    0.6770    9.0030 C   0  0  0  0  0  0  0  0  0  0  0  0
    8.5080    1.6710    9.7870 C   0  0  0  0  0  3  0  0  0  0  0  0
    9.1890    2.8340   10.1480 C   0  0  0  0  0  3  0  0  0  0  0  0
   10.5010    3.0170    9.7300 C   0  0  0  0  0  0  0  0  0  0  0  0
   11.3550    4.4370   10.1950 Cl  0  0  0  0  0  0  0  0  0  0  0  0
   11.1300    2.0530    8.9450 C   0  0  0  0  0  3  0  0  0  0  0  0
   10.4500    0.8820    8.5550 C   0  0  0  0  0  0  0  0  0  0  0  0
    6.9150   -2.9020    8.0760 C   0  0  0  0  0  0  0  0  0  0  0  0
    7.6260   -2.7850    9.2810 C   0  0  0  0  0  3  0  0  0  0  0  0
    8.3430   -1.6220    9.5850 C   0  0  0  0  0  3  0  0  0  0  0  0
    8.3650   -0.5430    8.6920 C   0  0  0  0  0  0  0  0  0  0  0  0
    7.6570   -0.6550    7.4870 C   0  0  0  0  0  3  0  0  0  0  0  0
    6.9420   -1.8170    7.1850 C   0  0  0  0  0  3  0  0  0  0  0  0
    6.4880   -5.2300    8.3460 O   0  0  0  0  0  1  0  0  0  0  0  0
    6.1450   -4.1650    7.7390 C   0  0  0  0  0  0  0  0  0  0  0  0
    5.2140   -4.0660    6.8800 O   0  0  0  0  0  0  0  0  0  0  0  0
  1  6  1  0  0  0  0
  1 25  1  0  0  0  0
  2  1  2  0  0  0  0
  3  4  2  0  0  0  0
  3  2  1  0  0  0  0
  4  5  1  0  0  0  0
  5  6  2  0  0  0  0
  7  8  2  0  0  0  0
  7  4  1  0  0  0  0
  9  8  1  0  0  0  0
 10  9  1  0  0  0  0
 11 10  2  0  0  0  0
 12 13  2  0  0  0  0
 12 11  1  0  0  0  0
 13 14  1  0  0  0  0
 14 15  1  0  0  0  0
 14  9  2  0  0  0  0
 15  7  1  0  0  0  0
 16 15  1  0  0  0  0
 17 16  1  0  0  0  0
 18 17  1  0  0  0  0
 19 20  1  0  0  0  0
 19 18  1  0  0  0  0
 20 21  1  0  0  0  0
 21 16  1  0  0  0  0
 22 11  1  0  0  0  0
 22 23  1  0  0  0  0
 24 22  2  0  0  0  0
 25 26  1  0  0  0  0
 26 33  1  0  0  0  0
 27 28  1  0  0  0  0
 28 29  2  0  0  0  0
 30 29  1  0  0  0  0
 30 31  1  0  0  0  0
 32 30  2  0  0  0  0
 33 32  1  0  0  0  0
 33 27  2  0  0  0  0
 34 35  1  0  0  0  0
 35 36  2  0  0  0  0
 37 27  1  0  0  0  0
 37 36  1  0  0  0  0
 38 37  2  0  0  0  0
 39 38  1  0  0  0  0
 39 34  2  0  0  0  0
 41 34  1  0  0  0  0
 41 40  1  0  0  0  0
 42 41  2  0  0  0  0
M  END
>  <minimizedAffinity>
-8.37477112

$$$$
