
 OpenBabel09122222393D

 42 47  0  0  0  0  0  0  0  0999 V2000
   10.5440   -0.5060    5.3400 C   0  0  0  0  0  0  0  0  0  0  0  0
   10.5450   -1.8860    5.5560 C   0  0  0  0  0  3  0  0  0  0  0  0
    9.9970   -2.7560    4.6090 C   0  0  0  0  0  3  0  0  0  0  0  0
    9.4290   -2.2520    3.4370 C   0  0  0  0  0  0  0  0  0  0  0  0
    9.4790   -0.8740    3.1960 C   0  0  0  0  0  3  0  0  0  0  0  0
   10.0270   -0.0030    4.1450 C   0  0  0  0  0  3  0  0  0  0  0  0
    8.8250   -3.1440    2.4530 C   0  0  0  0  0  0  0  0  0  0  0  0
    7.7930   -3.9210    2.7230 N   0  0  0  0  0  0  0  0  0  0  0  0
    7.4970   -4.5900    1.5630 C   0  0  0  0  0  0  0  0  0  0  0  0
    6.4770   -5.5200    1.3000 C   0  0  0  0  0  3  0  0  0  0  0  0
    6.3490   -6.0770    0.0100 C   0  0  0  0  0  0  0  0  0  0  0  0
    7.2580   -5.6860   -0.9860 C   0  0  0  0  0  3  0  0  0  0  0  0
    8.2830   -4.7630   -0.7440 C   0  0  0  0  0  3  0  0  0  0  0  0
    8.3770   -4.2300    0.5490 C   0  0  0  0  0  0  0  0  0  0  0  0
    9.2350   -3.3150    1.1410 N   0  0  0  0  0  0  0  0  0  0  0  0
   10.3260   -2.6590    0.4220 C   0  0  0  0  0  3  0  0  0  0  0  0
   11.3780   -3.6630   -0.0750 C   0  0  0  0  0  2  0  0  0  0  0  0
   12.5850   -2.9490   -0.6830 C   0  0  0  0  0  2  0  0  0  0  0  0
   12.1730   -1.9620   -1.7730 C   0  0  0  0  0  2  0  0  0  0  0  0
   11.1300   -0.9660   -1.2730 C   0  0  0  0  0  2  0  0  0  0  0  0
    9.9100   -1.6840   -0.6910 C   0  0  0  0  0  2  0  0  0  0  0  0
    5.2480   -7.0740   -0.3000 C   0  0  0  0  0  0  0  0  0  0  0  0
    5.4990   -7.9770   -1.1590 O   0  0  0  0  0  0  0  0  0  0  0  0
    4.1500   -6.9380    0.3300 O   0  0  0  0  0  1  0  0  0  0  0  0
   11.0960    0.2290    6.3540 O   0  0  0  0  0  0  0  0  0  0  0  0
   10.3460    1.3400    6.8660 C   0  0  0  0  0  2  0  0  0  0  0  0
   12.0400    3.2540    6.9490 C   0  0  0  0  0  0  0  0  0  0  0  0
   12.8070    4.1630    7.7030 C   0  0  0  0  0  3  0  0  0  0  0  0
   12.7390    4.1880    9.0970 C   0  0  0  0  0  3  0  0  0  0  0  0
   11.8970    3.3010    9.7570 C   0  0  0  0  0  0  0  0  0  0  0  0
   11.7880    3.3460   11.4740 Cl  0  0  0  0  0  0  0  0  0  0  0  0
   11.1340    2.3850    9.0350 C   0  0  0  0  0  3  0  0  0  0  0  0
   11.2060    2.3340    7.6280 C   0  0  0  0  0  0  0  0  0  0  0  0
   12.2990    3.3890    2.6530 C   0  0  0  0  0  0  0  0  0  0  0  0
   11.1010    3.7040    3.3140 C   0  0  0  0  0  3  0  0  0  0  0  0
   11.0140    3.6620    4.7100 C   0  0  0  0  0  3  0  0  0  0  0  0
   12.1270    3.3080    5.4840 C   0  0  0  0  0  0  0  0  0  0  0  0
   13.3270    2.9920    4.8290 C   0  0  0  0  0  3  0  0  0  0  0  0
   13.4100    3.0340    3.4340 C   0  0  0  0  0  3  0  0  0  0  0  0
   13.5560    3.3540    0.6300 O   0  0  0  0  0  1  0  0  0  0  0  0
   12.3920    3.4240    1.1400 C   0  0  0  0  0  0  0  0  0  0  0  0
   11.3020    3.5160    0.4920 O   0  0  0  0  0  0  0  0  0  0  0  0
  1  2  1  0  0  0  0
  1 25  1  0  0  0  0
  3  2  2  0  0  0  0
  4  3  1  0  0  0  0
  5  4  2  0  0  0  0
  5  6  1  0  0  0  0
  6  1  2  0  0  0  0
  7  8  2  0  0  0  0
  7  4  1  0  0  0  0
  9  8  1  0  0  0  0
 10  9  1  0  0  0  0
 11 10  2  0  0  0  0
 12 13  2  0  0  0  0
 12 11  1  0  0  0  0
 13 14  1  0  0  0  0
 14 15  1  0  0  0  0
 14  9  2  0  0  0  0
 15  7  1  0  0  0  0
 16 15  1  0  0  0  0
 17 16  1  0  0  0  0
 18 17  1  0  0  0  0
 19 20  1  0  0  0  0
 19 18  1  0  0  0  0
 20 21  1  0  0  0  0
 21 16  1  0  0  0  0
 22 11  1  0  0  0  0
 22 24  1  0  0  0  0
 23 22  2  0  0  0  0
 25 26  1  0  0  0  0
 26 33  1  0  0  0  0
 27 33  2  0  0  0  0
 27 28  1  0  0  0  0
 28 29  2  0  0  0  0
 29 30  1  0  0  0  0
 30 31  1  0  0  0  0
 32 30  2  0  0  0  0
 33 32  1  0  0  0  0
 34 35  2  0  0  0  0
 34 39  1  0  0  0  0
 35 36  1  0  0  0  0
 36 37  2  0  0  0  0
 37 27  1  0  0  0  0
 38 37  1  0  0  0  0
 39 38  2  0  0  0  0
 40 41  1  0  0  0  0
 41 34  1  0  0  0  0
 42 41  2  0  0  0  0
M  END
>  <minimizedAffinity>
-8.17606831

$$$$
