
 OpenBabel09122222393D

 42 47  0  0  0  0  0  0  0  0999 V2000
   10.5720   -0.4160    5.3570 C   0  0  0  0  0  0  0  0  0  0  0  0
   10.6250   -1.7960    5.5640 C   0  0  0  0  0  3  0  0  0  0  0  0
   10.0780   -2.6790    4.6280 C   0  0  0  0  0  3  0  0  0  0  0  0
    9.4580   -2.1880    3.4780 C   0  0  0  0  0  0  0  0  0  0  0  0
    9.4540   -0.8080    3.2440 C   0  0  0  0  0  3  0  0  0  0  0  0
   10.0020    0.0760    4.1820 C   0  0  0  0  0  3  0  0  0  0  0  0
    8.8540   -3.0950    2.5070 C   0  0  0  0  0  0  0  0  0  0  0  0
    7.8170   -3.8620    2.7860 N   0  0  0  0  0  0  0  0  0  0  0  0
    7.5220   -4.5490    1.6360 C   0  0  0  0  0  0  0  0  0  0  0  0
    6.5000   -5.4790    1.3850 C   0  0  0  0  0  3  0  0  0  0  0  0
    6.3740   -6.0580    0.1050 C   0  0  0  0  0  0  0  0  0  0  0  0
    7.2900   -5.6890   -0.8940 C   0  0  0  0  0  3  0  0  0  0  0  0
    8.3180   -4.7660   -0.6630 C   0  0  0  0  0  3  0  0  0  0  0  0
    8.4090   -4.2110    0.6200 C   0  0  0  0  0  0  0  0  0  0  0  0
    9.2680   -3.2900    1.1990 N   0  0  0  0  0  0  0  0  0  0  0  0
   10.3660   -2.6530    0.4740 C   0  0  0  0  0  3  0  0  0  0  0  0
   11.4150   -3.6700   -0.0010 C   0  0  0  0  0  2  0  0  0  0  0  0
   12.6280   -2.9720   -0.6160 C   0  0  0  0  0  2  0  0  0  0  0  0
   12.2260   -2.0030   -1.7250 C   0  0  0  0  0  2  0  0  0  0  0  0
   11.1850   -0.9930   -1.2460 C   0  0  0  0  0  2  0  0  0  0  0  0
    9.9600   -1.6950   -0.6580 C   0  0  0  0  0  2  0  0  0  0  0  0
    5.2700   -7.0550   -0.1930 C   0  0  0  0  0  0  0  0  0  0  0  0
    5.4120   -7.8000   -1.2140 O   0  0  0  0  0  0  0  0  0  0  0  0
    4.2810   -7.0790    0.6090 O   0  0  0  0  0  1  0  0  0  0  0  0
   11.1300    0.3320    6.3580 O   0  0  0  0  0  0  0  0  0  0  0  0
   11.8890    1.4920    5.9890 C   0  0  0  0  0  2  0  0  0  0  0  0
   12.9160    3.2410    7.5470 C   0  0  0  0  0  0  0  0  0  0  0  0
   12.7490    4.2950    8.4660 C   0  0  0  0  0  3  0  0  0  0  0  0
   11.4790    4.7530    8.8200 C   0  0  0  0  0  3  0  0  0  0  0  0
   10.3560    4.1620    8.2530 C   0  0  0  0  0  0  0  0  0  0  0  0
    8.7880    4.7410    8.6650 Cl  0  0  0  0  0  0  0  0  0  0  0  0
   10.4930    3.1120    7.3480 C   0  0  0  0  0  3  0  0  0  0  0  0
   11.7680    2.6240    6.9950 C   0  0  0  0  0  0  0  0  0  0  0  0
   16.9090    2.0270    6.4860 C   0  0  0  0  0  0  0  0  0  0  0  0
   16.2020    2.9470    5.6970 C   0  0  0  0  0  3  0  0  0  0  0  0
   14.9050    3.3450    6.0400 C   0  0  0  0  0  3  0  0  0  0  0  0
   14.2810    2.8340    7.1860 C   0  0  0  0  0  0  0  0  0  0  0  0
   14.9830    1.9130    7.9780 C   0  0  0  0  0  3  0  0  0  0  0  0
   16.2790    1.5180    7.6320 C   0  0  0  0  0  3  0  0  0  0  0  0
   19.2390    1.8400    6.9440 O   0  0  0  0  0  1  0  0  0  0  0  0
   18.3110    1.5870    6.1100 C   0  0  0  0  0  0  0  0  0  0  0  0
   18.4550    0.9950    4.9950 O   0  0  0  0  0  0  0  0  0  0  0  0
  1  2  1  0  0  0  0
  1 25  1  0  0  0  0
  3  2  2  0  0  0  0
  4  3  1  0  0  0  0
  5  4  2  0  0  0  0
  5  6  1  0  0  0  0
  6  1  2  0  0  0  0
  7  8  2  0  0  0  0
  7  4  1  0  0  0  0
  9  8  1  0  0  0  0
 10  9  1  0  0  0  0
 11 10  2  0  0  0  0
 12 13  2  0  0  0  0
 12 11  1  0  0  0  0
 13 14  1  0  0  0  0
 14 15  1  0  0  0  0
 14  9  2  0  0  0  0
 15  7  1  0  0  0  0
 16 15  1  0  0  0  0
 17 16  1  0  0  0  0
 18 17  1  0  0  0  0
 19 20  1  0  0  0  0
 19 18  1  0  0  0  0
 20 21  1  0  0  0  0
 21 16  1  0  0  0  0
 22 11  1  0  0  0  0
 22 24  1  0  0  0  0
 23 22  2  0  0  0  0
 26 25  1  0  0  0  0
 26 33  1  0  0  0  0
 27 28  1  0  0  0  0
 28 29  2  0  0  0  0
 30 31  1  0  0  0  0
 30 29  1  0  0  0  0
 32 30  2  0  0  0  0
 33 32  1  0  0  0  0
 33 27  2  0  0  0  0
 34 39  1  0  0  0  0
 35 36  1  0  0  0  0
 35 34  2  0  0  0  0
 36 37  2  0  0  0  0
 37 27  1  0  0  0  0
 37 38  1  0  0  0  0
 39 38  2  0  0  0  0
 41 34  1  0  0  0  0
 41 40  1  0  0  0  0
 42 41  2  0  0  0  0
M  END
>  <minimizedAffinity>
-8.29311848

$$$$
