
 OpenBabel09122222393D

 42 47  0  0  0  0  0  0  0  0999 V2000
    9.3040   -2.4210    4.7450 C   0  0  0  0  0  0  0  0  0  0  0  0
    9.9530   -1.2610    5.1740 C   0  0  0  0  0  3  0  0  0  0  0  0
    9.4560   -0.5220    6.2520 C   0  0  0  0  0  3  0  0  0  0  0  0
    8.2930   -0.9320    6.9080 C   0  0  0  0  0  0  0  0  0  0  0  0
    7.6750   -2.1240    6.5130 C   0  0  0  0  0  3  0  0  0  0  0  0
    8.1730   -2.8630    5.4330 C   0  0  0  0  0  3  0  0  0  0  0  0
    7.7430   -0.1560    8.0140 C   0  0  0  0  0  0  0  0  0  0  0  0
    8.3720    0.8690    8.5580 N   0  0  0  0  0  0  0  0  0  0  0  0
    7.5480    1.3520    9.5410 C   0  0  0  0  0  0  0  0  0  0  0  0
    7.7300    2.4440   10.4060 C   0  0  0  0  0  3  0  0  0  0  0  0
    6.7280    2.7730   11.3440 C   0  0  0  0  0  0  0  0  0  0  0  0
    5.5660    1.9870   11.3920 C   0  0  0  0  0  3  0  0  0  0  0  0
    5.3660    0.8930   10.5400 C   0  0  0  0  0  3  0  0  0  0  0  0
    6.3830    0.5990    9.6210 C   0  0  0  0  0  0  0  0  0  0  0  0
    6.5310   -0.3760    8.6460 N   0  0  0  0  0  0  0  0  0  0  0  0
    5.5170   -1.3940    8.3710 C   0  0  0  0  0  3  0  0  0  0  0  0
    5.1510   -2.2020    9.6260 C   0  0  0  0  0  2  0  0  0  0  0  0
    4.2120   -3.3600    9.2880 C   0  0  0  0  0  2  0  0  0  0  0  0
    2.9750   -2.8860    8.5290 C   0  0  0  0  0  2  0  0  0  0  0  0
    3.3450   -2.0850    7.2820 C   0  0  0  0  0  2  0  0  0  0  0  0
    4.2610   -0.9100    7.6280 C   0  0  0  0  0  2  0  0  0  0  0  0
    6.8980    3.9560   12.2800 C   0  0  0  0  0  0  0  0  0  0  0  0
    6.0250    4.1110   13.1920 O   0  0  0  0  0  1  0  0  0  0  0  0
    7.9090    4.7050   12.0870 O   0  0  0  0  0  0  0  0  0  0  0  0
    9.8880   -3.0350    3.6710 O   0  0  0  0  0  0  0  0  0  0  0  0
    9.6360   -2.4940    2.3660 C   0  0  0  0  0  2  0  0  0  0  0  0
    9.3560   -3.6440    0.0990 C   0  0  0  0  0  0  0  0  0  0  0  0
    8.6840   -4.5780   -0.7120 C   0  0  0  0  0  3  0  0  0  0  0  0
    7.6380   -5.3540   -0.2110 C   0  0  0  0  0  3  0  0  0  0  0  0
    7.2520   -5.2060    1.1160 C   0  0  0  0  0  0  0  0  0  0  0  0
    5.9810   -6.1800    1.7480 Cl  0  0  0  0  0  0  0  0  0  0  0  0
    7.8940   -4.2830    1.9380 C   0  0  0  0  0  3  0  0  0  0  0  0
    8.9390   -3.4770    1.4410 C   0  0  0  0  0  0  0  0  0  0  0  0
   12.6350   -1.4140   -1.5790 C   0  0  0  0  0  0  0  0  0  0  0  0
   12.8330   -2.6990   -1.0500 C   0  0  0  0  0  3  0  0  0  0  0  0
   11.7690   -3.4270   -0.5060 C   0  0  0  0  0  3  0  0  0  0  0  0
   10.4750   -2.8880   -0.4790 C   0  0  0  0  0  0  0  0  0  0  0  0
   10.2730   -1.6040   -1.0050 C   0  0  0  0  0  3  0  0  0  0  0  0
   11.3380   -0.8800   -1.5480 C   0  0  0  0  0  3  0  0  0  0  0  0
   13.6470    0.6440   -2.2240 O   0  0  0  0  0  1  0  0  0  0  0  0
   13.7890   -0.6190   -2.1600 C   0  0  0  0  0  0  0  0  0  0  0  0
   14.8130   -1.2720   -2.5370 O   0  0  0  0  0  0  0  0  0  0  0  0
  1  2  2  0  0  0  0
  1  6  1  0  0  0  0
  2  3  1  0  0  0  0
  3  4  2  0  0  0  0
  4  7  1  0  0  0  0
  5  4  1  0  0  0  0
  6  5  2  0  0  0  0
  7  8  2  0  0  0  0
  7 15  1  0  0  0  0
  8  9  1  0  0  0  0
  9 14  2  0  0  0  0
  9 10  1  0  0  0  0
 10 11  2  0  0  0  0
 11 12  1  0  0  0  0
 11 22  1  0  0  0  0
 13 12  2  0  0  0  0
 14 13  1  0  0  0  0
 15 14  1  0  0  0  0
 16 15  1  0  0  0  0
 16 17  1  0  0  0  0
 18 17  1  0  0  0  0
 19 18  1  0  0  0  0
 20 21  1  0  0  0  0
 20 19  1  0  0  0  0
 21 16  1  0  0  0  0
 22 23  1  0  0  0  0
 24 22  2  0  0  0  0
 25  1  1  0  0  0  0
 26 25  1  0  0  0  0
 27 33  1  0  0  0  0
 28 29  1  0  0  0  0
 28 27  2  0  0  0  0
 29 30  2  0  0  0  0
 30 31  1  0  0  0  0
 30 32  1  0  0  0  0
 33 32  2  0  0  0  0
 33 26  1  0  0  0  0
 34 39  2  0  0  0  0
 34 35  1  0  0  0  0
 35 36  2  0  0  0  0
 36 37  1  0  0  0  0
 37 27  1  0  0  0  0
 38 37  2  0  0  0  0
 39 38  1  0  0  0  0
 40 41  1  0  0  0  0
 41 34  1  0  0  0  0
 42 41  2  0  0  0  0
M  END
>  <minimizedAffinity>
-8.07045746

$$$$
