
 OpenBabel09122222393D

 42 47  0  0  0  0  0  0  0  0999 V2000
   10.6150   -0.5700    5.3820 C   0  0  0  0  0  0  0  0  0  0  0  0
   10.0190   -0.0370    4.2370 C   0  0  0  0  0  3  0  0  0  0  0  0
    9.4150   -0.8720    3.2920 C   0  0  0  0  0  3  0  0  0  0  0  0
    9.4110   -2.2560    3.4780 C   0  0  0  0  0  0  0  0  0  0  0  0
    9.9590   -2.7850    4.6530 C   0  0  0  0  0  3  0  0  0  0  0  0
   10.5640   -1.9480    5.5980 C   0  0  0  0  0  3  0  0  0  0  0  0
    8.8130   -3.1440    2.4870 C   0  0  0  0  0  0  0  0  0  0  0  0
    7.7670   -3.9070    2.7420 N   0  0  0  0  0  0  0  0  0  0  0  0
    7.4820   -4.5760    1.5790 C   0  0  0  0  0  0  0  0  0  0  0  0
    6.4560   -5.4940    1.3010 C   0  0  0  0  0  3  0  0  0  0  0  0
    6.3430   -6.0540    0.0120 C   0  0  0  0  0  0  0  0  0  0  0  0
    7.2740   -5.6780   -0.9700 C   0  0  0  0  0  3  0  0  0  0  0  0
    8.3060   -4.7670   -0.7130 C   0  0  0  0  0  3  0  0  0  0  0  0
    8.3840   -4.2300    0.5800 C   0  0  0  0  0  0  0  0  0  0  0  0
    9.2430   -3.3240    1.1830 N   0  0  0  0  0  0  0  0  0  0  0  0
   10.3550   -2.6850    0.4800 C   0  0  0  0  0  3  0  0  0  0  0  0
   11.4060   -3.7020    0.0120 C   0  0  0  0  0  2  0  0  0  0  0  0
   12.6330   -3.0040   -0.5770 C   0  0  0  0  0  2  0  0  0  0  0  0
   12.2520   -2.0230   -1.6830 C   0  0  0  0  0  2  0  0  0  0  0  0
   11.2080   -1.0130   -1.2110 C   0  0  0  0  0  2  0  0  0  0  0  0
    9.9700   -1.7140   -0.6480 C   0  0  0  0  0  2  0  0  0  0  0  0
    5.2350   -7.0380   -0.3140 C   0  0  0  0  0  0  0  0  0  0  0  0
    4.1330   -6.9080    0.3080 O   0  0  0  0  0  1  0  0  0  0  0  0
    5.4880   -7.9230   -1.1950 O   0  0  0  0  0  0  0  0  0  0  0  0
   11.1830    0.3570    6.2130 O   0  0  0  0  0  0  0  0  0  0  0  0
   11.2530    1.7160    5.7580 C   0  0  0  0  0  2  0  0  0  0  0  0
   13.1120    3.2870    4.9740 C   0  0  0  0  0  0  0  0  0  0  0  0
   14.4050    3.8190    5.1480 C   0  0  0  0  0  3  0  0  0  0  0  0
   15.2130    3.4240    6.2150 C   0  0  0  0  0  3  0  0  0  0  0  0
   14.7360    2.4900    7.1260 C   0  0  0  0  0  0  0  0  0  0  0  0
   15.7180    2.0190    8.4590 Cl  0  0  0  0  0  0  0  0  0  0  0  0
   13.4650    1.9410    6.9720 C   0  0  0  0  0  3  0  0  0  0  0  0
   12.6430    2.3140    5.8890 C   0  0  0  0  0  0  0  0  0  0  0  0
   10.7100    4.7000    1.6920 C   0  0  0  0  0  0  0  0  0  0  0  0
   10.6630    5.3320    2.9440 C   0  0  0  0  0  3  0  0  0  0  0  0
   11.4440    4.8750    4.0120 C   0  0  0  0  0  3  0  0  0  0  0  0
   12.2970    3.7750    3.8540 C   0  0  0  0  0  0  0  0  0  0  0  0
   12.3470    3.1400    2.6050 C   0  0  0  0  0  3  0  0  0  0  0  0
   11.5660    3.5970    1.5400 C   0  0  0  0  0  3  0  0  0  0  0  0
    9.1150    4.3260   -0.0370 O   0  0  0  0  0  0  0  0  0  0  0  0
    9.8570    5.1860    0.5360 C   0  0  0  0  0  0  0  0  0  0  0  0
    9.9430    6.4160    0.2280 O   0  0  0  0  0  1  0  0  0  0  0  0
  1  6  1  0  0  0  0
  1 25  1  0  0  0  0
  2  1  2  0  0  0  0
  3  4  2  0  0  0  0
  3  2  1  0  0  0  0
  4  5  1  0  0  0  0
  5  6  2  0  0  0  0
  7  8  2  0  0  0  0
  7  4  1  0  0  0  0
  9  8  1  0  0  0  0
 10  9  1  0  0  0  0
 11 10  2  0  0  0  0
 12 13  2  0  0  0  0
 12 11  1  0  0  0  0
 13 14  1  0  0  0  0
 14 15  1  0  0  0  0
 14  9  2  0  0  0  0
 15  7  1  0  0  0  0
 16 15  1  0  0  0  0
 17 16  1  0  0  0  0
 18 17  1  0  0  0  0
 19 20  1  0  0  0  0
 19 18  1  0  0  0  0
 20 21  1  0  0  0  0
 21 16  1  0  0  0  0
 22 11  1  0  0  0  0
 22 23  1  0  0  0  0
 24 22  2  0  0  0  0
 26 33  1  0  0  0  0
 26 25  1  0  0  0  0
 27 28  2  0  0  0  0
 27 33  1  0  0  0  0
 28 29  1  0  0  0  0
 29 30  2  0  0  0  0
 30 31  1  0  0  0  0
 32 30  1  0  0  0  0
 33 32  2  0  0  0  0
 34 35  1  0  0  0  0
 35 36  2  0  0  0  0
 37 36  1  0  0  0  0
 37 27  1  0  0  0  0
 38 37  2  0  0  0  0
 39 34  2  0  0  0  0
 39 38  1  0  0  0  0
 40 41  2  0  0  0  0
 41 34  1  0  0  0  0
 42 41  1  0  0  0  0
M  END
>  <minimizedAffinity>
-8.51813698

$$$$
