
 OpenBabel09122222393D

 42 47  0  0  0  0  0  0  0  0999 V2000
   10.6040   -0.3640    5.3890 C   0  0  0  0  0  0  0  0  0  0  0  0
   10.6890   -1.7440    5.5850 C   0  0  0  0  0  3  0  0  0  0  0  0
   10.1400   -2.6310    4.6550 C   0  0  0  0  0  3  0  0  0  0  0  0
    9.4870   -2.1450    3.5210 C   0  0  0  0  0  0  0  0  0  0  0  0
    9.4510   -0.7640    3.2960 C   0  0  0  0  0  3  0  0  0  0  0  0
   10.0010    0.1240    4.2290 C   0  0  0  0  0  3  0  0  0  0  0  0
    8.8800   -3.0570    2.5560 C   0  0  0  0  0  0  0  0  0  0  0  0
    7.8330   -3.8090    2.8360 N   0  0  0  0  0  0  0  0  0  0  0  0
    7.5400   -4.5080    1.6930 C   0  0  0  0  0  0  0  0  0  0  0  0
    6.5100   -5.4300    1.4440 C   0  0  0  0  0  3  0  0  0  0  0  0
    6.3890   -6.0230    0.1700 C   0  0  0  0  0  0  0  0  0  0  0  0
    7.3160   -5.6770   -0.8250 C   0  0  0  0  0  3  0  0  0  0  0  0
    8.3520   -4.7620   -0.5970 C   0  0  0  0  0  3  0  0  0  0  0  0
    8.4390   -4.1920    0.6800 C   0  0  0  0  0  0  0  0  0  0  0  0
    9.3040   -3.2730    1.2550 N   0  0  0  0  0  0  0  0  0  0  0  0
   10.4140   -2.6570    0.5300 C   0  0  0  0  0  3  0  0  0  0  0  0
   11.4520   -3.6920    0.0700 C   0  0  0  0  0  2  0  0  0  0  0  0
   12.6780   -3.0170   -0.5430 C   0  0  0  0  0  2  0  0  0  0  0  0
   12.2960   -2.0510   -1.6620 C   0  0  0  0  0  2  0  0  0  0  0  0
   11.2660   -1.0230   -1.1980 C   0  0  0  0  0  2  0  0  0  0  0  0
   10.0280   -1.7030   -0.6110 C   0  0  0  0  0  2  0  0  0  0  0  0
    5.2760   -7.0120   -0.1240 C   0  0  0  0  0  0  0  0  0  0  0  0
    4.3560   -7.1350    0.7450 O   0  0  0  0  0  1  0  0  0  0  0  0
    5.3400   -7.6440   -1.2270 O   0  0  0  0  0  0  0  0  0  0  0  0
   11.1680    0.3890    6.3840 O   0  0  0  0  0  0  0  0  0  0  0  0
   10.7840    0.1110    7.7380 C   0  0  0  0  0  2  0  0  0  0  0  0
   11.9320   -0.9850    9.7420 C   0  0  0  0  0  0  0  0  0  0  0  0
   13.0670   -1.1230   10.5650 C   0  0  0  0  0  3  0  0  0  0  0  0
   14.2310   -0.3930   10.3210 C   0  0  0  0  0  3  0  0  0  0  0  0
   14.2760    0.4850    9.2450 C   0  0  0  0  0  0  0  0  0  0  0  0
   15.7190    1.3670    8.9230 Cl  0  0  0  0  0  0  0  0  0  0  0  0
   13.1640    0.6470    8.4210 C   0  0  0  0  0  3  0  0  0  0  0  0
   11.9740   -0.0680    8.6660 C   0  0  0  0  0  0  0  0  0  0  0  0
    8.4890   -3.4250   10.5940 C   0  0  0  0  0  0  0  0  0  0  0  0
    8.6370   -2.1590   11.1800 C   0  0  0  0  0  3  0  0  0  0  0  0
    9.7550   -1.3630   10.9040 C   0  0  0  0  0  3  0  0  0  0  0  0
   10.7530   -1.8130   10.0290 C   0  0  0  0  0  0  0  0  0  0  0  0
   10.6090   -3.0780    9.4420 C   0  0  0  0  0  3  0  0  0  0  0  0
    9.4920   -3.8710    9.7200 C   0  0  0  0  0  3  0  0  0  0  0  0
    7.5010   -5.3920   11.5050 O   0  0  0  0  0  1  0  0  0  0  0  0
    7.2830   -4.2940   10.9000 C   0  0  0  0  0  0  0  0  0  0  0  0
    6.1460   -3.8600   10.5330 O   0  0  0  0  0  0  0  0  0  0  0  0
  1  2  1  0  0  0  0
  1 25  1  0  0  0  0
  3  2  2  0  0  0  0
  4  3  1  0  0  0  0
  5  4  2  0  0  0  0
  5  6  1  0  0  0  0
  6  1  2  0  0  0  0
  7  8  2  0  0  0  0
  7  4  1  0  0  0  0
  9  8  1  0  0  0  0
 10  9  1  0  0  0  0
 11 10  2  0  0  0  0
 12 13  2  0  0  0  0
 12 11  1  0  0  0  0
 13 14  1  0  0  0  0
 14 15  1  0  0  0  0
 14  9  2  0  0  0  0
 15  7  1  0  0  0  0
 16 15  1  0  0  0  0
 17 16  1  0  0  0  0
 18 17  1  0  0  0  0
 19 20  1  0  0  0  0
 19 18  1  0  0  0  0
 20 21  1  0  0  0  0
 21 16  1  0  0  0  0
 22 11  1  0  0  0  0
 22 23  1  0  0  0  0
 24 22  2  0  0  0  0
 25 26  1  0  0  0  0
 26 33  1  0  0  0  0
 27 37  1  0  0  0  0
 27 28  1  0  0  0  0
 29 28  2  0  0  0  0
 30 29  1  0  0  0  0
 31 30  1  0  0  0  0
 32 33  1  0  0  0  0
 32 30  2  0  0  0  0
 33 27  2  0  0  0  0
 34 41  1  0  0  0  0
 34 35  1  0  0  0  0
 36 35  2  0  0  0  0
 37 36  1  0  0  0  0
 38 39  1  0  0  0  0
 38 37  2  0  0  0  0
 39 34  2  0  0  0  0
 41 40  1  0  0  0  0
 42 41  2  0  0  0  0
M  END
>  <minimizedAffinity>
-8.06359482

$$$$
