
 OpenBabel09122222393D

 42 47  0  0  0  0  0  0  0  0999 V2000
    3.4910   -1.0150    7.7740 C   0  0  0  0  0  0  0  0  0  0  0  0
    4.7810   -1.4520    7.4620 C   0  0  0  0  0  3  0  0  0  0  0  0
    4.9890   -2.3980    6.4540 C   0  0  0  0  0  3  0  0  0  0  0  0
    3.9050   -2.9270    5.7520 C   0  0  0  0  0  0  0  0  0  0  0  0
    2.6180   -2.4470    6.0260 C   0  0  0  0  0  3  0  0  0  0  0  0
    2.4100   -1.5010    7.0370 C   0  0  0  0  0  3  0  0  0  0  0  0
    4.1020   -3.9380    4.7190 C   0  0  0  0  0  0  0  0  0  0  0  0
    4.5650   -3.6580    3.5160 N   0  0  0  0  0  0  0  0  0  0  0  0
    4.6320   -4.8480    2.8380 C   0  0  0  0  0  0  0  0  0  0  0  0
    5.0750   -5.1120    1.5310 C   0  0  0  0  0  3  0  0  0  0  0  0
    5.0700   -6.4340    1.0400 C   0  0  0  0  0  0  0  0  0  0  0  0
    4.6110   -7.4620    1.8790 C   0  0  0  0  0  3  0  0  0  0  0  0
    4.1620   -7.2200    3.1840 C   0  0  0  0  0  3  0  0  0  0  0  0
    4.1850   -5.8940    3.6360 C   0  0  0  0  0  0  0  0  0  0  0  0
    3.8310   -5.2920    4.8340 N   0  0  0  0  0  0  0  0  0  0  0  0
    3.3120   -6.0350    5.9820 C   0  0  0  0  0  3  0  0  0  0  0  0
    4.0370   -5.6690    7.2860 C   0  0  0  0  0  2  0  0  0  0  0  0
    3.5930   -6.5660    8.4410 C   0  0  0  0  0  2  0  0  0  0  0  0
    2.0750   -6.5670    8.6090 C   0  0  0  0  0  2  0  0  0  0  0  0
    1.3600   -6.9340    7.3100 C   0  0  0  0  0  2  0  0  0  0  0  0
    1.7860   -6.0160    6.1630 C   0  0  0  0  0  2  0  0  0  0  0  0
    5.5560   -6.7440   -0.3630 C   0  0  0  0  0  0  0  0  0  0  0  0
    5.1470   -7.8220   -0.9010 O   0  0  0  0  0  1  0  0  0  0  0  0
    6.3360   -5.8970   -0.9060 O   0  0  0  0  0  0  0  0  0  0  0  0
    3.4300   -0.1010    8.7910 O   0  0  0  0  0  0  0  0  0  0  0  0
    4.3370   -0.2570    9.8920 C   0  0  0  0  0  2  0  0  0  0  0  0
    4.7740   -2.4280   11.1700 C   0  0  0  0  0  0  0  0  0  0  0  0
    4.3380   -3.4070   12.0830 C   0  0  0  0  0  3  0  0  0  0  0  0
    3.0890   -3.3170   12.7000 C   0  0  0  0  0  3  0  0  0  0  0  0
    2.2600   -2.2410   12.4120 C   0  0  0  0  0  0  0  0  0  0  0  0
    0.7300   -2.1100   13.1910 Cl  0  0  0  0  0  0  0  0  0  0  0  0
    2.6630   -1.2630   11.5060 C   0  0  0  0  0  3  0  0  0  0  0  0
    3.9130   -1.3490   10.8590 C   0  0  0  0  0  0  0  0  0  0  0  0
    8.6990   -2.8120    9.4410 C   0  0  0  0  0  0  0  0  0  0  0  0
    8.3770   -1.7210   10.2630 C   0  0  0  0  0  3  0  0  0  0  0  0
    7.1030   -1.5950   10.8280 C   0  0  0  0  0  3  0  0  0  0  0  0
    6.1160   -2.5600   10.5870 C   0  0  0  0  0  0  0  0  0  0  0  0
    6.4330   -3.6510    9.7650 C   0  0  0  0  0  3  0  0  0  0  0  0
    7.7060   -3.7750    9.2020 C   0  0  0  0  0  3  0  0  0  0  0  0
   10.2920   -2.2960    7.7460 O   0  0  0  0  0  0  0  0  0  0  0  0
   10.0760   -2.9460    8.8190 C   0  0  0  0  0  0  0  0  0  0  0  0
   10.9140   -3.6920    9.4170 O   0  0  0  0  0  1  0  0  0  0  0  0
  1 25  1  0  0  0  0
  2  1  1  0  0  0  0
  3  2  2  0  0  0  0
  4  5  2  0  0  0  0
  4  3  1  0  0  0  0
  5  6  1  0  0  0  0
  6  1  2  0  0  0  0
  7 15  1  0  0  0  0
  7  4  1  0  0  0  0
  8  7  2  0  0  0  0
  9  8  1  0  0  0  0
  9 14  1  0  0  0  0
 10  9  2  0  0  0  0
 11 10  1  0  0  0  0
 11 12  2  0  0  0  0
 12 13  1  0  0  0  0
 13 14  2  0  0  0  0
 14 15  1  0  0  0  0
 15 16  1  0  0  0  0
 16 21  1  0  0  0  0
 16 17  1  0  0  0  0
 17 18  1  0  0  0  0
 18 19  1  0  0  0  0
 20 19  1  0  0  0  0
 21 20  1  0  0  0  0
 22 11  1  0  0  0  0
 23 22  1  0  0  0  0
 24 22  2  0  0  0  0
 25 26  1  0  0  0  0
 26 33  1  0  0  0  0
 27 28  1  0  0  0  0
 28 29  2  0  0  0  0
 30 29  1  0  0  0  0
 30 31  1  0  0  0  0
 32 30  2  0  0  0  0
 33 27  2  0  0  0  0
 33 32  1  0  0  0  0
 34 35  1  0  0  0  0
 35 36  2  0  0  0  0
 37 36  1  0  0  0  0
 37 27  1  0  0  0  0
 38 37  2  0  0  0  0
 39 34  2  0  0  0  0
 39 38  1  0  0  0  0
 40 41  2  0  0  0  0
 41 42  1  0  0  0  0
 41 34  1  0  0  0  0
M  END
>  <minimizedAffinity>
-8.16553879

$$$$
