
 OpenBabel09132204463D

 31 33  0  0  0  0  0  0  0  0999 V2000
    2.9780   -3.5580    6.3680 C   0  0  0  0  0  0  0  0  0  0  0  0
    3.0410   -2.5060    5.4620 C   0  0  0  0  0  3  0  0  0  0  0  0
    3.5490   -3.0070    4.2400 C   0  0  0  0  0  3  0  0  0  0  0  0
    3.7930   -4.3470    4.4420 C   0  0  0  0  0  0  0  0  0  0  0  0
    3.4660   -4.6740    5.7240 O   0  0  0  0  0  0  0  0  0  0  0  0
    4.3160   -5.4310    3.6140 C   0  0  0  0  0  0  0  0  0  0  0  0
    3.9630   -6.7640    3.8690 C   0  0  0  0  0  3  0  0  0  0  0  0
    4.4550   -7.7990    3.0740 C   0  0  0  0  0  3  0  0  0  0  0  0
    5.3110   -7.5090    2.0140 C   0  0  0  0  0  3  0  0  0  0  0  0
    5.6850   -6.1910    1.7410 C   0  0  0  0  0  0  0  0  0  0  0  0
    5.1820   -5.1580    2.5390 C   0  0  0  0  0  3  0  0  0  0  0  0
    6.5320   -6.0590    0.6780 O   0  0  0  0  0  0  0  0  0  0  0  0
    5.9640   -5.9580   -0.6160 C   0  0  0  0  0  0  0  0  0  0  0  0
    5.8090   -7.1750   -1.1780 F   0  0  0  0  0  0  0  0  0  0  0  0
    4.7740   -5.3200   -0.5810 F   0  0  0  0  0  0  0  0  0  0  0  0
    6.7990   -5.2400   -1.4000 F   0  0  0  0  0  0  0  0  0  0  0  0
    2.5540   -4.6870    8.5190 C   0  0  0  0  0  0  0  0  0  0  0  0
    2.5740   -3.5920    7.7320 C   0  0  0  0  0  2  0  0  0  0  0  0
    3.0650   -5.9160    8.1210 N   0  0  0  0  0  4  0  0  0  0  0  0
    2.4350   -7.0670    7.7030 C   0  0  0  0  0  0  0  0  0  0  0  0
    3.0710   -8.1240    7.6630 O   0  0  0  0  0  0  0  0  0  0  0  0
    4.0540   -6.0610    8.2700 H   0  0  0  0  0  0  0  0  0  0  0  0
    1.0500   -7.0680    7.1830 C   0  0  0  0  0  0  0  0  0  0  0  0
    0.0030   -7.3390    8.0710 C   0  0  0  0  0  3  0  0  0  0  0  0
   -1.3090   -7.4230    7.6020 C   0  0  0  0  0  3  0  0  0  0  0  0
   -1.5730   -7.2530    6.2430 C   0  0  0  0  0  3  0  0  0  0  0  0
   -0.5290   -7.0070    5.3510 C   0  0  0  0  0  3  0  0  0  0  0  0
    0.7850   -6.9280    5.8170 C   0  0  0  0  0  3  0  0  0  0  0  0
    2.2910   -5.2430   10.8280 O   0  0  0  0  0  1  0  0  0  0  0  0
    2.0300   -4.3660    9.9550 C   0  0  0  0  0  0  0  0  0  0  0  0
    1.3820   -3.2840   10.0530 O   0  0  0  0  0  0  0  0  0  0  0  0
  1 18  1  0  0  0  0
  2  1  2  0  0  0  0
  3  4  2  0  0  0  0
  3  2  1  0  0  0  0
  4  5  1  0  0  0  0
  5  1  1  0  0  0  0
  6  7  1  0  0  0  0
  6  4  1  0  0  0  0
  8  7  2  0  0  0  0
  9  8  1  0  0  0  0
 10  9  2  0  0  0  0
 10 11  1  0  0  0  0
 11  6  2  0  0  0  0
 12 10  1  0  0  0  0
 13 15  1  0  0  0  0
 13 12  1  0  0  0  0
 14 13  1  0  0  0  0
 16 13  1  0  0  0  0
 17 30  1  0  0  0  0
 18 17  1  0  0  0  0
 19 22  1  0  0  0  0
 19 17  2  3  0  0  0
 20 19  1  0  0  0  0
 21 20  2  0  0  0  0
 23 20  1  0  0  0  0
 23 24  1  0  0  0  0
 25 24  2  0  0  0  0
 26 25  1  0  0  0  0
 27 28  1  0  0  0  0
 27 26  2  0  0  0  0
 28 23  2  0  0  0  0
 30 31  2  0  0  0  0
 30 29  1  0  0  0  0
M  END
>  <minimizedAffinity>
-7.14897823

$$$$
