
 OpenBabel09132204463D

 31 33  0  0  0  0  0  0  0  0999 V2000
    1.9460   -8.4610    4.6460 C   0  0  0  0  0  0  0  0  0  0  0  0
    1.5440   -8.5910    5.9700 C   0  0  0  0  0  3  0  0  0  0  0  0
    1.6990   -7.3340    6.6020 C   0  0  0  0  0  3  0  0  0  0  0  0
    2.2030   -6.4790    5.6480 C   0  0  0  0  0  0  0  0  0  0  0  0
    2.3670   -7.1600    4.4780 O   0  0  0  0  0  0  0  0  0  0  0  0
    2.5930   -5.0710    5.6330 C   0  0  0  0  0  0  0  0  0  0  0  0
    2.7680   -4.3870    4.4220 C   0  0  0  0  0  3  0  0  0  0  0  0
    3.1300   -3.0400    4.4080 C   0  0  0  0  0  3  0  0  0  0  0  0
    3.3270   -2.3640    5.6090 C   0  0  0  0  0  3  0  0  0  0  0  0
    3.1650   -3.0230    6.8310 C   0  0  0  0  0  0  0  0  0  0  0  0
    2.7960   -4.3720    6.8370 C   0  0  0  0  0  3  0  0  0  0  0  0
    3.3960   -2.2370    7.9250 O   0  0  0  0  0  0  0  0  0  0  0  0
    2.2830   -1.6180    8.5440 C   0  0  0  0  0  0  0  0  0  0  0  0
    1.5090   -2.5240    9.1780 F   0  0  0  0  0  0  0  0  0  0  0  0
    2.6730   -0.6640    9.4160 F   0  0  0  0  0  0  0  0  0  0  0  0
    1.5320   -1.0250    7.5880 F   0  0  0  0  0  0  0  0  0  0  0  0
    3.1480   -9.8520    3.0030 C   0  0  0  0  0  0  0  0  0  0  0  0
    2.0180   -9.4170    3.5950 C   0  0  0  0  0  2  0  0  0  0  0  0
    4.4180   -9.5080    3.4500 N   0  0  0  0  0  4  0  0  0  0  0  0
    5.3890   -8.7060    2.8930 C   0  0  0  0  0  0  0  0  0  0  0  0
    6.5430   -8.7630    3.3290 O   0  0  0  0  0  0  0  0  0  0  0  0
    4.7630  -10.0130    4.2550 H   0  0  0  0  0  0  0  0  0  0  0  0
    5.0820   -7.6860    1.8670 C   0  0  0  0  0  0  0  0  0  0  0  0
    5.0650   -8.0740    0.5230 C   0  0  0  0  0  3  0  0  0  0  0  0
    4.8540   -7.1240   -0.4780 C   0  0  0  0  0  3  0  0  0  0  0  0
    4.6760   -5.7830   -0.1370 C   0  0  0  0  0  3  0  0  0  0  0  0
    4.7160   -5.3890    1.2020 C   0  0  0  0  0  3  0  0  0  0  0  0
    4.9320   -6.3370    2.2040 C   0  0  0  0  0  3  0  0  0  0  0  0
    3.1830  -12.0770    2.1330 O   0  0  0  0  0  1  0  0  0  0  0  0
    2.8550  -10.8840    1.8680 C   0  0  0  0  0  0  0  0  0  0  0  0
    2.3580  -10.3880    0.8160 O   0  0  0  0  0  0  0  0  0  0  0  0
  1  2  2  0  0  0  0
  2  3  1  0  0  0  0
  4  3  2  0  0  0  0
  5  1  1  0  0  0  0
  5  4  1  0  0  0  0
  6  4  1  0  0  0  0
  6 11  1  0  0  0  0
  7  6  2  0  0  0  0
  8  7  1  0  0  0  0
  8  9  2  0  0  0  0
  9 10  1  0  0  0  0
 10 11  2  0  0  0  0
 10 12  1  0  0  0  0
 12 13  1  0  0  0  0
 13 14  1  0  0  0  0
 13 15  1  0  0  0  0
 16 13  1  0  0  0  0
 17 19  2  0  0  0  0
 17 18  1  0  0  0  0
 18  1  1  0  0  0  0
 19 22  1  0  0  0  0
 20 21  2  0  0  0  0
 20 19  1  0  0  0  0
 23 28  1  0  0  0  0
 23 20  1  0  0  0  0
 24 23  2  0  0  0  0
 25 26  2  0  0  0  0
 25 24  1  0  0  0  0
 26 27  1  0  0  0  0
 27 28  2  0  0  0  0
 30 29  1  0  0  0  0
 30 17  1  0  0  0  0
 31 30  2  0  0  0  0
M  END
>  <minimizedAffinity>
-7.15053558

$$$$
