
 OpenBabel09122223433D

 31 33  0  0  0  0  0  0  0  0999 V2000
    3.7000   -2.7560    5.7750 C   0  0  0  0  0  0  0  0  0  0  0  0
    2.3630   -2.8890    5.4180 C   0  0  0  0  0  3  0  0  0  0  0  0
    2.2520   -3.9790    4.5220 C   0  0  0  0  0  3  0  0  0  0  0  0
    3.5260   -4.4700    4.3500 C   0  0  0  0  0  0  0  0  0  0  0  0
    4.3980   -3.7260    5.0880 O   0  0  0  0  0  0  0  0  0  0  0  0
    4.1110   -5.5580    3.5690 C   0  0  0  0  0  0  0  0  0  0  0  0
    3.7980   -6.8950    3.8520 C   0  0  0  0  0  3  0  0  0  0  0  0
    4.3480   -7.9330    3.1010 C   0  0  0  0  0  3  0  0  0  0  0  0
    5.2240   -7.6430    2.0580 C   0  0  0  0  0  3  0  0  0  0  0  0
    5.5590   -6.3200    1.7570 C   0  0  0  0  0  0  0  0  0  0  0  0
    4.9980   -5.2840    2.5110 C   0  0  0  0  0  3  0  0  0  0  0  0
    6.4320   -6.1870    0.7150 O   0  0  0  0  0  0  0  0  0  0  0  0
    5.8940   -6.0810   -0.5910 C   0  0  0  0  0  0  0  0  0  0  0  0
    5.8090   -7.2900   -1.1850 F   0  0  0  0  0  0  0  0  0  0  0  0
    4.6770   -5.4970   -0.5760 F   0  0  0  0  0  0  0  0  0  0  0  0
    6.7170   -5.3080   -1.3360 F   0  0  0  0  0  0  0  0  0  0  0  0
    5.3350   -2.0900    7.4950 C   0  0  0  0  0  0  0  0  0  0  0  0
    4.3520   -1.8120    6.6160 C   0  0  0  0  0  2  0  0  0  0  0  0
    5.9360   -3.3390    7.5910 N   0  0  0  0  0  4  0  0  0  0  0  0
    5.5780   -4.4640    8.3000 C   0  0  0  0  0  0  0  0  0  0  0  0
    6.4050   -5.3690    8.4550 O   0  0  0  0  0  0  0  0  0  0  0  0
    6.8560   -3.4280    7.1820 H   0  0  0  0  0  0  0  0  0  0  0  0
    4.1990   -4.6900    8.7850 C   0  0  0  0  0  0  0  0  0  0  0  0
    3.3500   -5.5060    8.0290 C   0  0  0  0  0  3  0  0  0  0  0  0
    2.0200   -5.6800    8.4150 C   0  0  0  0  0  3  0  0  0  0  0  0
    1.5340   -5.0260    9.5470 C   0  0  0  0  0  3  0  0  0  0  0  0
    2.3720   -4.1930   10.2900 C   0  0  0  0  0  3  0  0  0  0  0  0
    3.7010   -4.0130    9.9030 C   0  0  0  0  0  3  0  0  0  0  0  0
    6.5960   -0.0650    7.6350 O   0  0  0  0  0  0  0  0  0  0  0  0
    5.8020   -0.8180    8.2710 C   0  0  0  0  0  0  0  0  0  0  0  0
    5.3520   -0.7200    9.4490 O   0  0  0  0  0  1  0  0  0  0  0  0
  1 18  1  0  0  0  0
  2  1  2  0  0  0  0
  3  2  1  0  0  0  0
  4  3  2  0  0  0  0
  4  5  1  0  0  0  0
  5  1  1  0  0  0  0
  6  7  1  0  0  0  0
  6  4  1  0  0  0  0
  8  7  2  0  0  0  0
  9  8  1  0  0  0  0
 10  9  2  0  0  0  0
 10 11  1  0  0  0  0
 11  6  2  0  0  0  0
 12 10  1  0  0  0  0
 13 15  1  0  0  0  0
 13 12  1  0  0  0  0
 14 13  1  0  0  0  0
 16 13  1  0  0  0  0
 17 19  2  0  0  0  0
 17 30  1  0  0  0  0
 18 17  1  0  0  0  0
 19 20  1  0  0  0  0
 20 21  2  0  0  0  0
 20 23  1  0  0  0  0
 22 19  1  0  0  0  0
 23 28  1  0  0  0  0
 24 25  1  0  0  0  0
 24 23  2  0  0  0  0
 25 26  2  0  0  0  0
 26 27  1  0  0  0  0
 28 27  2  0  0  0  0
 29 30  2  0  0  0  0
 30 31  1  0  0  0  0
M  END
>  <minimizedAffinity>
-7.42854023

$$$$

 OpenBabel09122223433D

 31 33  0  0  0  0  0  0  0  0999 V2000
    3.4490   -2.2560    6.0210 C   0  0  0  0  0  0  0  0  0  0  0  0
    2.1900   -2.2400    5.4320 C   0  0  0  0  0  3  0  0  0  0  0  0
    2.1340   -3.2910    4.4850 C   0  0  0  0  0  3  0  0  0  0  0  0
    3.3650   -3.9070    4.5160 C   0  0  0  0  0  0  0  0  0  0  0  0
    4.1600   -3.2750    5.4260 O   0  0  0  0  0  0  0  0  0  0  0  0
    3.9700   -5.0290    3.8030 C   0  0  0  0  0  0  0  0  0  0  0  0
    3.7160   -6.3510    4.1960 C   0  0  0  0  0  3  0  0  0  0  0  0
    4.2860   -7.4230    3.5090 C   0  0  0  0  0  3  0  0  0  0  0  0
    5.1230   -7.1820    2.4230 C   0  0  0  0  0  3  0  0  0  0  0  0
    5.3990   -5.8750    2.0130 C   0  0  0  0  0  0  0  0  0  0  0  0
    4.8190   -4.8050    2.7030 C   0  0  0  0  0  3  0  0  0  0  0  0
    6.2390   -5.7910    0.9400 O   0  0  0  0  0  0  0  0  0  0  0  0
    5.6860   -5.9720   -0.3510 C   0  0  0  0  0  0  0  0  0  0  0  0
    5.6590   -7.2770   -0.6940 F   0  0  0  0  0  0  0  0  0  0  0  0
    4.4400   -5.4570   -0.4280 F   0  0  0  0  0  0  0  0  0  0  0  0
    6.4610   -5.3210   -1.2490 F   0  0  0  0  0  0  0  0  0  0  0  0
    4.7430   -1.8110    8.0720 C   0  0  0  0  0  0  0  0  0  0  0  0
    4.0290   -1.4050    7.0020 C   0  0  0  0  0  2  0  0  0  0  0  0
    5.1180   -3.1340    8.2750 N   0  0  0  0  0  4  0  0  0  0  0  0
    6.2120   -3.8440    7.8320 C   0  0  0  0  0  0  0  0  0  0  0  0
    6.2010   -5.0760    7.9040 O   0  0  0  0  0  0  0  0  0  0  0  0
    4.4320   -3.7330    8.7130 H   0  0  0  0  0  0  0  0  0  0  0  0
    7.4560   -3.1830    7.3820 C   0  0  0  0  0  0  0  0  0  0  0  0
    7.6310   -2.9510    6.0120 C   0  0  0  0  0  3  0  0  0  0  0  0
    8.8240   -2.3990    5.5430 C   0  0  0  0  0  3  0  0  0  0  0  0
    9.8490   -2.0950    6.4390 C   0  0  0  0  0  3  0  0  0  0  0  0
    9.6860   -2.3470    7.8020 C   0  0  0  0  0  3  0  0  0  0  0  0
    8.4960   -2.9040    8.2740 C   0  0  0  0  0  3  0  0  0  0  0  0
    4.3860   -0.2560    9.8500 O   0  0  0  0  0  1  0  0  0  0  0  0
    5.2080   -0.6100    8.9550 C   0  0  0  0  0  0  0  0  0  0  0  0
    6.3320   -0.1240    8.6410 O   0  0  0  0  0  0  0  0  0  0  0  0
  1 18  1  0  0  0  0
  2  1  2  0  0  0  0
  3  4  2  0  0  0  0
  3  2  1  0  0  0  0
  4  5  1  0  0  0  0
  5  1  1  0  0  0  0
  6  7  1  0  0  0  0
  6  4  1  0  0  0  0
  8  7  2  0  0  0  0
  9  8  1  0  0  0  0
 10  9  2  0  0  0  0
 10 11  1  0  0  0  0
 11  6  2  0  0  0  0
 12 10  1  0  0  0  0
 13 12  1  0  0  0  0
 14 13  1  0  0  0  0
 15 13  1  0  0  0  0
 16 13  1  0  0  0  0
 17 19  2  3  0  0  0
 17 30  1  0  0  0  0
 18 17  1  0  0  0  0
 19 22  1  0  0  0  0
 20 21  2  0  0  0  0
 20 19  1  0  0  0  0
 23 20  1  0  0  0  0
 23 28  1  0  0  0  0
 24 23  2  0  0  0  0
 25 24  1  0  0  0  0
 25 26  2  0  0  0  0
 26 27  1  0  0  0  0
 27 28  2  0  0  0  0
 30 29  1  0  0  0  0
 31 30  2  0  0  0  0
M  END
>  <minimizedAffinity>
-7.19811726

$$$$

 OpenBabel09122223433D

 31 33  0  0  0  0  0  0  0  0999 V2000
    4.3400   -7.2080    3.1750 C   0  0  0  0  0  0  0  0  0  0  0  0
    3.9040   -7.9640    2.0930 C   0  0  0  0  0  3  0  0  0  0  0  0
    4.6760   -7.6010    0.9630 C   0  0  0  0  0  3  0  0  0  0  0  0
    5.5500   -6.6260    1.3870 C   0  0  0  0  0  0  0  0  0  0  0  0
    5.3370   -6.3780    2.7110 O   0  0  0  0  0  0  0  0  0  0  0  0
    6.5940   -5.8320    0.7430 C   0  0  0  0  0  0  0  0  0  0  0  0
    6.7040   -5.7870   -0.6540 C   0  0  0  0  0  3  0  0  0  0  0  0
    7.6940   -5.0220   -1.2690 C   0  0  0  0  0  3  0  0  0  0  0  0
    8.5910   -4.2960   -0.4890 C   0  0  0  0  0  3  0  0  0  0  0  0
    8.5090   -4.3260    0.9050 C   0  0  0  0  0  0  0  0  0  0  0  0
    7.5090   -5.0910    1.5150 C   0  0  0  0  0  3  0  0  0  0  0  0
    9.4550   -3.5720    1.5380 O   0  0  0  0  0  0  0  0  0  0  0  0
    9.0250   -2.4150    2.2340 C   0  0  0  0  0  0  0  0  0  0  0  0
    8.4090   -1.5470    1.4060 F   0  0  0  0  0  0  0  0  0  0  0  0
    8.1990   -2.7340    3.2540 F   0  0  0  0  0  0  0  0  0  0  0  0
   10.1100   -1.7970    2.7550 F   0  0  0  0  0  0  0  0  0  0  0  0
    3.2940   -6.1050    5.1170 C   0  0  0  0  0  0  0  0  0  0  0  0
    3.8870   -7.1600    4.5230 C   0  0  0  0  0  2  0  0  0  0  0  0
    2.9260   -4.9560    4.4270 N   0  0  0  0  0  4  0  0  0  0  0  0
    3.1910   -3.6270    4.6720 C   0  0  0  0  0  0  0  0  0  0  0  0
    2.5340   -2.7620    4.0860 O   0  0  0  0  0  0  0  0  0  0  0  0
    2.2460   -5.0740    3.6880 H   0  0  0  0  0  0  0  0  0  0  0  0
    4.3190   -3.1890    5.5240 C   0  0  0  0  0  0  0  0  0  0  0  0
    4.0950   -2.1680    6.4550 C   0  0  0  0  0  3  0  0  0  0  0  0
    5.1520   -1.6770    7.2220 C   0  0  0  0  0  3  0  0  0  0  0  0
    6.4370   -2.1920    7.0470 C   0  0  0  0  0  3  0  0  0  0  0  0
    6.6670   -3.1930    6.1020 C   0  0  0  0  0  3  0  0  0  0  0  0
    5.6130   -3.6830    5.3300 C   0  0  0  0  0  3  0  0  0  0  0  0
    1.7140   -6.4120    6.8820 O   0  0  0  0  0  0  0  0  0  0  0  0
    2.9510   -6.3920    6.6130 C   0  0  0  0  0  0  0  0  0  0  0  0
    3.9530   -6.5360    7.3690 O   0  0  0  0  0  1  0  0  0  0  0  0
  1 18  1  0  0  0  0
  2  1  2  0  0  0  0
  3  4  2  0  0  0  0
  3  2  1  0  0  0  0
  4  5  1  0  0  0  0
  5  1  1  0  0  0  0
  6  4  1  0  0  0  0
  6 11  1  0  0  0  0
  7  6  2  0  0  0  0
  8  7  1  0  0  0  0
  8  9  2  0  0  0  0
  9 10  1  0  0  0  0
 10 11  2  0  0  0  0
 10 12  1  0  0  0  0
 12 13  1  0  0  0  0
 13 16  1  0  0  0  0
 13 15  1  0  0  0  0
 14 13  1  0  0  0  0
 17 30  1  0  0  0  0
 18 17  1  0  0  0  0
 19 20  1  0  0  0  0
 19 17  2  0  0  0  0
 20 23  1  0  0  0  0
 21 20  2  0  0  0  0
 22 19  1  0  0  0  0
 23 24  1  0  0  0  0
 24 25  2  0  0  0  0
 26 25  1  0  0  0  0
 27 26  2  0  0  0  0
 28 23  2  0  0  0  0
 28 27  1  0  0  0  0
 30 29  2  0  0  0  0
 30 31  1  0  0  0  0
M  END
>  <minimizedAffinity>
-7.18092632

$$$$

 OpenBabel09122223433D

 31 33  0  0  0  0  0  0  0  0999 V2000
    1.9460   -8.4610    4.6460 C   0  0  0  0  0  0  0  0  0  0  0  0
    1.5440   -8.5910    5.9700 C   0  0  0  0  0  3  0  0  0  0  0  0
    1.6990   -7.3340    6.6020 C   0  0  0  0  0  3  0  0  0  0  0  0
    2.2030   -6.4790    5.6480 C   0  0  0  0  0  0  0  0  0  0  0  0
    2.3670   -7.1600    4.4780 O   0  0  0  0  0  0  0  0  0  0  0  0
    2.5930   -5.0710    5.6330 C   0  0  0  0  0  0  0  0  0  0  0  0
    2.7680   -4.3870    4.4220 C   0  0  0  0  0  3  0  0  0  0  0  0
    3.1300   -3.0400    4.4080 C   0  0  0  0  0  3  0  0  0  0  0  0
    3.3270   -2.3640    5.6090 C   0  0  0  0  0  3  0  0  0  0  0  0
    3.1650   -3.0230    6.8310 C   0  0  0  0  0  0  0  0  0  0  0  0
    2.7960   -4.3720    6.8370 C   0  0  0  0  0  3  0  0  0  0  0  0
    3.3960   -2.2370    7.9250 O   0  0  0  0  0  0  0  0  0  0  0  0
    2.2830   -1.6180    8.5440 C   0  0  0  0  0  0  0  0  0  0  0  0
    1.5090   -2.5240    9.1780 F   0  0  0  0  0  0  0  0  0  0  0  0
    2.6730   -0.6640    9.4160 F   0  0  0  0  0  0  0  0  0  0  0  0
    1.5320   -1.0250    7.5880 F   0  0  0  0  0  0  0  0  0  0  0  0
    3.1480   -9.8520    3.0030 C   0  0  0  0  0  0  0  0  0  0  0  0
    2.0180   -9.4170    3.5950 C   0  0  0  0  0  2  0  0  0  0  0  0
    4.4180   -9.5080    3.4500 N   0  0  0  0  0  4  0  0  0  0  0  0
    5.3890   -8.7060    2.8930 C   0  0  0  0  0  0  0  0  0  0  0  0
    6.5430   -8.7630    3.3290 O   0  0  0  0  0  0  0  0  0  0  0  0
    4.7630  -10.0130    4.2550 H   0  0  0  0  0  0  0  0  0  0  0  0
    5.0820   -7.6860    1.8670 C   0  0  0  0  0  0  0  0  0  0  0  0
    5.0650   -8.0740    0.5230 C   0  0  0  0  0  3  0  0  0  0  0  0
    4.8540   -7.1240   -0.4780 C   0  0  0  0  0  3  0  0  0  0  0  0
    4.6760   -5.7830   -0.1370 C   0  0  0  0  0  3  0  0  0  0  0  0
    4.7160   -5.3890    1.2020 C   0  0  0  0  0  3  0  0  0  0  0  0
    4.9320   -6.3370    2.2040 C   0  0  0  0  0  3  0  0  0  0  0  0
    3.1830  -12.0770    2.1330 O   0  0  0  0  0  1  0  0  0  0  0  0
    2.8550  -10.8840    1.8680 C   0  0  0  0  0  0  0  0  0  0  0  0
    2.3580  -10.3880    0.8160 O   0  0  0  0  0  0  0  0  0  0  0  0
  1  2  2  0  0  0  0
  2  3  1  0  0  0  0
  4  3  2  0  0  0  0
  5  1  1  0  0  0  0
  5  4  1  0  0  0  0
  6  4  1  0  0  0  0
  6 11  1  0  0  0  0
  7  6  2  0  0  0  0
  8  7  1  0  0  0  0
  8  9  2  0  0  0  0
  9 10  1  0  0  0  0
 10 11  2  0  0  0  0
 10 12  1  0  0  0  0
 12 13  1  0  0  0  0
 13 14  1  0  0  0  0
 13 15  1  0  0  0  0
 16 13  1  0  0  0  0
 17 19  2  0  0  0  0
 17 18  1  0  0  0  0
 18  1  1  0  0  0  0
 19 22  1  0  0  0  0
 20 21  2  0  0  0  0
 20 19  1  0  0  0  0
 23 28  1  0  0  0  0
 23 20  1  0  0  0  0
 24 23  2  0  0  0  0
 25 26  2  0  0  0  0
 25 24  1  0  0  0  0
 26 27  1  0  0  0  0
 27 28  2  0  0  0  0
 30 29  1  0  0  0  0
 30 17  1  0  0  0  0
 31 30  2  0  0  0  0
M  END
>  <minimizedAffinity>
-7.15053558

$$$$

 OpenBabel09122223433D

 31 33  0  0  0  0  0  0  0  0999 V2000
    2.9780   -3.5580    6.3680 C   0  0  0  0  0  0  0  0  0  0  0  0
    3.0410   -2.5060    5.4620 C   0  0  0  0  0  3  0  0  0  0  0  0
    3.5490   -3.0070    4.2400 C   0  0  0  0  0  3  0  0  0  0  0  0
    3.7930   -4.3470    4.4420 C   0  0  0  0  0  0  0  0  0  0  0  0
    3.4660   -4.6740    5.7240 O   0  0  0  0  0  0  0  0  0  0  0  0
    4.3160   -5.4310    3.6140 C   0  0  0  0  0  0  0  0  0  0  0  0
    3.9630   -6.7640    3.8690 C   0  0  0  0  0  3  0  0  0  0  0  0
    4.4550   -7.7990    3.0740 C   0  0  0  0  0  3  0  0  0  0  0  0
    5.3110   -7.5090    2.0140 C   0  0  0  0  0  3  0  0  0  0  0  0
    5.6850   -6.1910    1.7410 C   0  0  0  0  0  0  0  0  0  0  0  0
    5.1820   -5.1580    2.5390 C   0  0  0  0  0  3  0  0  0  0  0  0
    6.5320   -6.0590    0.6780 O   0  0  0  0  0  0  0  0  0  0  0  0
    5.9640   -5.9580   -0.6160 C   0  0  0  0  0  0  0  0  0  0  0  0
    5.8090   -7.1750   -1.1780 F   0  0  0  0  0  0  0  0  0  0  0  0
    4.7740   -5.3200   -0.5810 F   0  0  0  0  0  0  0  0  0  0  0  0
    6.7990   -5.2400   -1.4000 F   0  0  0  0  0  0  0  0  0  0  0  0
    2.5540   -4.6870    8.5190 C   0  0  0  0  0  0  0  0  0  0  0  0
    2.5740   -3.5920    7.7320 C   0  0  0  0  0  2  0  0  0  0  0  0
    3.0650   -5.9160    8.1210 N   0  0  0  0  0  4  0  0  0  0  0  0
    2.4350   -7.0670    7.7030 C   0  0  0  0  0  0  0  0  0  0  0  0
    3.0710   -8.1240    7.6630 O   0  0  0  0  0  0  0  0  0  0  0  0
    4.0540   -6.0610    8.2700 H   0  0  0  0  0  0  0  0  0  0  0  0
    1.0500   -7.0680    7.1830 C   0  0  0  0  0  0  0  0  0  0  0  0
    0.0030   -7.3390    8.0710 C   0  0  0  0  0  3  0  0  0  0  0  0
   -1.3090   -7.4230    7.6020 C   0  0  0  0  0  3  0  0  0  0  0  0
   -1.5730   -7.2530    6.2430 C   0  0  0  0  0  3  0  0  0  0  0  0
   -0.5290   -7.0070    5.3510 C   0  0  0  0  0  3  0  0  0  0  0  0
    0.7850   -6.9280    5.8170 C   0  0  0  0  0  3  0  0  0  0  0  0
    2.2910   -5.2430   10.8280 O   0  0  0  0  0  1  0  0  0  0  0  0
    2.0300   -4.3660    9.9550 C   0  0  0  0  0  0  0  0  0  0  0  0
    1.3820   -3.2840   10.0530 O   0  0  0  0  0  0  0  0  0  0  0  0
  1 18  1  0  0  0  0
  2  1  2  0  0  0  0
  3  4  2  0  0  0  0
  3  2  1  0  0  0  0
  4  5  1  0  0  0  0
  5  1  1  0  0  0  0
  6  7  1  0  0  0  0
  6  4  1  0  0  0  0
  8  7  2  0  0  0  0
  9  8  1  0  0  0  0
 10  9  2  0  0  0  0
 10 11  1  0  0  0  0
 11  6  2  0  0  0  0
 12 10  1  0  0  0  0
 13 15  1  0  0  0  0
 13 12  1  0  0  0  0
 14 13  1  0  0  0  0
 16 13  1  0  0  0  0
 17 30  1  0  0  0  0
 18 17  1  0  0  0  0
 19 22  1  0  0  0  0
 19 17  2  3  0  0  0
 20 19  1  0  0  0  0
 21 20  2  0  0  0  0
 23 20  1  0  0  0  0
 23 24  1  0  0  0  0
 25 24  2  0  0  0  0
 26 25  1  0  0  0  0
 27 28  1  0  0  0  0
 27 26  2  0  0  0  0
 28 23  2  0  0  0  0
 30 31  2  0  0  0  0
 30 29  1  0  0  0  0
M  END
>  <minimizedAffinity>
-7.14897823

$$$$

 OpenBabel09122223433D

 31 33  0  0  0  0  0  0  0  0999 V2000
    1.9130   -8.1840    4.9750 C   0  0  0  0  0  0  0  0  0  0  0  0
    1.7320   -7.2040    5.9440 C   0  0  0  0  0  3  0  0  0  0  0  0
    2.6160   -6.1350    5.6600 C   0  0  0  0  0  3  0  0  0  0  0  0
    3.3180   -6.5020    4.5330 C   0  0  0  0  0  0  0  0  0  0  0  0
    2.9080   -7.7380    4.1320 O   0  0  0  0  0  0  0  0  0  0  0  0
    4.3670   -5.8800    3.7290 C   0  0  0  0  0  0  0  0  0  0  0  0
    4.8810   -4.6200    4.0690 C   0  0  0  0  0  3  0  0  0  0  0  0
    5.8890   -4.0300    3.3070 C   0  0  0  0  0  3  0  0  0  0  0  0
    6.3900   -4.6940    2.1900 C   0  0  0  0  0  3  0  0  0  0  0  0
    5.8930   -5.9480    1.8250 C   0  0  0  0  0  0  0  0  0  0  0  0
    4.8860   -6.5350    2.5970 C   0  0  0  0  0  3  0  0  0  0  0  0
    6.4730   -6.4760    0.7070 O   0  0  0  0  0  0  0  0  0  0  0  0
    5.8900   -6.1750   -0.5490 C   0  0  0  0  0  0  0  0  0  0  0  0
    4.7190   -5.5220   -0.4000 F   0  0  0  0  0  0  0  0  0  0  0  0
    6.7250   -5.4420   -1.3160 F   0  0  0  0  0  0  0  0  0  0  0  0
    5.6410   -7.3360   -1.1970 F   0  0  0  0  0  0  0  0  0  0  0  0
    1.0940  -10.0880    3.6390 C   0  0  0  0  0  0  0  0  0  0  0  0
    1.3040   -9.4590    4.8130 C   0  0  0  0  0  2  0  0  0  0  0  0
    1.5810   -9.6120    2.4280 N   0  0  0  0  0  4  0  0  0  0  0  0
    2.7700   -9.8490    1.7730 C   0  0  0  0  0  0  0  0  0  0  0  0
    3.1070   -9.1060    0.8450 O   0  0  0  0  0  0  0  0  0  0  0  0
    1.0520   -8.8710    1.9900 H   0  0  0  0  0  0  0  0  0  0  0  0
    3.6080  -11.0340    2.0570 C   0  0  0  0  0  0  0  0  0  0  0  0
    3.4010  -12.1950    1.3030 C   0  0  0  0  0  3  0  0  0  0  0  0
    4.1210  -13.3550    1.5930 C   0  0  0  0  0  3  0  0  0  0  0  0
    5.0340  -13.3610    2.6470 C   0  0  0  0  0  3  0  0  0  0  0  0
    5.2250  -12.2120    3.4160 C   0  0  0  0  0  3  0  0  0  0  0  0
    4.5030  -11.0520    3.1320 C   0  0  0  0  0  3  0  0  0  0  0  0
    1.1460  -12.4320    4.0960 O   0  0  0  0  0  1  0  0  0  0  0  0
    0.3780  -11.4620    3.8310 C   0  0  0  0  0  0  0  0  0  0  0  0
   -0.8750  -11.4350    3.6640 O   0  0  0  0  0  0  0  0  0  0  0  0
  1  2  2  0  0  0  0
  3  2  1  0  0  0  0
  4  3  2  0  0  0  0
  5  4  1  0  0  0  0
  5  1  1  0  0  0  0
  6  7  1  0  0  0  0
  6  4  1  0  0  0  0
  8  7  2  0  0  0  0
  9  8  1  0  0  0  0
 10  9  2  0  0  0  0
 10 11  1  0  0  0  0
 11  6  2  0  0  0  0
 12 10  1  0  0  0  0
 13 14  1  0  0  0  0
 13 12  1  0  0  0  0
 15 13  1  0  0  0  0
 16 13  1  0  0  0  0
 17 30  1  0  0  0  0
 17 18  1  0  0  0  0
 18  1  1  0  0  0  0
 19 17  2  0  0  0  0
 20 23  1  0  0  0  0
 20 19  1  0  0  0  0
 21 20  2  0  0  0  0
 22 19  1  0  0  0  0
 23 28  1  0  0  0  0
 24 25  1  0  0  0  0
 24 23  2  0  0  0  0
 25 26  2  0  0  0  0
 26 27  1  0  0  0  0
 28 27  2  0  0  0  0
 30 29  1  0  0  0  0
 31 30  2  0  0  0  0
M  END
>  <minimizedAffinity>
-7.06661177

$$$$

 OpenBabel09122223433D

 31 33  0  0  0  0  0  0  0  0999 V2000
    4.8670   -4.7050    5.6030 C   0  0  0  0  0  0  0  0  0  0  0  0
    3.6440   -5.3340    5.8040 C   0  0  0  0  0  3  0  0  0  0  0  0
    3.3460   -6.0970    4.6500 C   0  0  0  0  0  3  0  0  0  0  0  0
    4.3890   -5.8990    3.7740 C   0  0  0  0  0  0  0  0  0  0  0  0
    5.2940   -5.0510    4.3390 O   0  0  0  0  0  0  0  0  0  0  0  0
    4.7050   -6.3740    2.4290 C   0  0  0  0  0  0  0  0  0  0  0  0
    4.1240   -7.5470    1.9260 C   0  0  0  0  0  3  0  0  0  0  0  0
    4.4180   -7.9960    0.6390 C   0  0  0  0  0  3  0  0  0  0  0  0
    5.3030   -7.2750   -0.1590 C   0  0  0  0  0  3  0  0  0  0  0  0
    5.9020   -6.1070    0.3180 C   0  0  0  0  0  0  0  0  0  0  0  0
    5.5980   -5.6600    1.6080 C   0  0  0  0  0  3  0  0  0  0  0  0
    6.7510   -5.5100   -0.5700 O   0  0  0  0  0  0  0  0  0  0  0  0
    8.0440   -5.1530   -0.1140 C   0  0  0  0  0  0  0  0  0  0  0  0
    8.8380   -4.7790   -1.1400 F   0  0  0  0  0  0  0  0  0  0  0  0
    7.9860   -4.1600    0.7990 F   0  0  0  0  0  0  0  0  0  0  0  0
    8.6070   -6.2310    0.4780 F   0  0  0  0  0  0  0  0  0  0  0  0
    5.3050   -2.5120    6.6420 C   0  0  0  0  0  0  0  0  0  0  0  0
    5.6030   -3.8100    6.4280 C   0  0  0  0  0  2  0  0  0  0  0  0
    4.1390   -1.9160    6.1770 N   0  0  0  0  0  4  0  0  0  0  0  0
    2.8950   -1.7860    6.7530 C   0  0  0  0  0  0  0  0  0  0  0  0
    1.9330   -1.4640    6.0480 O   0  0  0  0  0  0  0  0  0  0  0  0
    4.1370   -1.6300    5.2070 H   0  0  0  0  0  0  0  0  0  0  0  0
    2.6820   -1.9010    8.2120 C   0  0  0  0  0  0  0  0  0  0  0  0
    3.0000   -0.8050    9.0220 C   0  0  0  0  0  3  0  0  0  0  0  0
    2.8840   -0.9020   10.4090 C   0  0  0  0  0  3  0  0  0  0  0  0
    2.4670   -2.1000   10.9900 C   0  0  0  0  0  3  0  0  0  0  0  0
    2.1720   -3.2030   10.1860 C   0  0  0  0  0  3  0  0  0  0  0  0
    2.2920   -3.1100    8.7980 C   0  0  0  0  0  3  0  0  0  0  0  0
    7.1360   -1.0220    7.0060 O   0  0  0  0  0  0  0  0  0  0  0  0
    6.3420   -1.8210    7.5830 C   0  0  0  0  0  0  0  0  0  0  0  0
    6.2770   -2.1740    8.7950 O   0  0  0  0  0  1  0  0  0  0  0  0
  1  2  2  0  0  0  0
  1 18  1  0  0  0  0
  3  2  1  0  0  0  0
  4  5  1  0  0  0  0
  4  3  2  0  0  0  0
  5  1  1  0  0  0  0
  6  4  1  0  0  0  0
  7  6  1  0  0  0  0
  8  7  2  0  0  0  0
  9 10  2  0  0  0  0
  9  8  1  0  0  0  0
 10 11  1  0  0  0  0
 11  6  2  0  0  0  0
 12 13  1  0  0  0  0
 12 10  1  0  0  0  0
 13 16  1  0  0  0  0
 13 15  1  0  0  0  0
 14 13  1  0  0  0  0
 17 30  1  0  0  0  0
 18 17  1  0  0  0  0
 19 17  2  3  0  0  0
 19 20  1  0  0  0  0
 20 23  1  0  0  0  0
 21 20  2  0  0  0  0
 22 19  1  0  0  0  0
 23 28  2  0  0  0  0
 23 24  1  0  0  0  0
 24 25  2  0  0  0  0
 25 26  1  0  0  0  0
 27 26  2  0  0  0  0
 28 27  1  0  0  0  0
 29 30  2  0  0  0  0
 30 31  1  0  0  0  0
M  END
>  <minimizedAffinity>
-7.05422688

$$$$

 OpenBabel09122223433D

 31 33  0  0  0  0  0  0  0  0999 V2000
    2.8400   -3.2620    6.3270 C   0  0  0  0  0  0  0  0  0  0  0  0
    2.5010   -2.4180    5.2760 C   0  0  0  0  0  3  0  0  0  0  0  0
    2.8660   -3.0540    4.0650 C   0  0  0  0  0  3  0  0  0  0  0  0
    3.4290   -4.2600    4.4150 C   0  0  0  0  0  0  0  0  0  0  0  0
    3.4290   -4.3780    5.7730 O   0  0  0  0  0  0  0  0  0  0  0  0
    4.0100   -5.3760    3.6720 C   0  0  0  0  0  0  0  0  0  0  0  0
    3.6970   -6.7020    4.0060 C   0  0  0  0  0  3  0  0  0  0  0  0
    4.2440   -7.7670    3.2910 C   0  0  0  0  0  3  0  0  0  0  0  0
    5.1160   -7.5160    2.2340 C   0  0  0  0  0  3  0  0  0  0  0  0
    5.4500   -6.2050    1.8830 C   0  0  0  0  0  0  0  0  0  0  0  0
    4.8930   -5.1420    2.6010 C   0  0  0  0  0  3  0  0  0  0  0  0
    6.3180   -6.1110    0.8330 O   0  0  0  0  0  0  0  0  0  0  0  0
    5.7770   -6.0850   -0.4750 C   0  0  0  0  0  0  0  0  0  0  0  0
    6.5360   -5.3380   -1.3040 F   0  0  0  0  0  0  0  0  0  0  0  0
    5.6470   -7.3310   -0.9790 F   0  0  0  0  0  0  0  0  0  0  0  0
    4.5450   -5.5280   -0.4220 F   0  0  0  0  0  0  0  0  0  0  0  0
    3.6540   -3.4200    8.6490 C   0  0  0  0  0  0  0  0  0  0  0  0
    2.7180   -3.0960    7.7340 C   0  0  0  0  0  2  0  0  0  0  0  0
    4.9330   -3.8430    8.3080 N   0  0  0  0  0  4  0  0  0  0  0  0
    5.6520   -4.9540    8.6890 C   0  0  0  0  0  0  0  0  0  0  0  0
    6.8680   -4.9870    8.4810 O   0  0  0  0  0  0  0  0  0  0  0  0
    5.5010   -3.1850    7.7930 H   0  0  0  0  0  0  0  0  0  0  0  0
    5.0050   -6.1680    9.2330 C   0  0  0  0  0  0  0  0  0  0  0  0
    4.3140   -7.0090    8.3530 C   0  0  0  0  0  3  0  0  0  0  0  0
    3.6280   -8.1220    8.8410 C   0  0  0  0  0  3  0  0  0  0  0  0
    3.6170   -8.3860   10.2110 C   0  0  0  0  0  3  0  0  0  0  0  0
    4.2850   -7.5360   11.0940 C   0  0  0  0  0  3  0  0  0  0  0  0
    4.9670   -6.4190   10.6090 C   0  0  0  0  0  3  0  0  0  0  0  0
    1.9220   -3.1800   10.2770 O   0  0  0  0  0  0  0  0  0  0  0  0
    3.1740   -3.1270   10.1060 C   0  0  0  0  0  0  0  0  0  0  0  0
    4.0980   -2.8410   10.9210 O   0  0  0  0  0  1  0  0  0  0  0  0
  1 18  1  0  0  0  0
  2  1  2  0  0  0  0
  3  4  2  0  0  0  0
  3  2  1  0  0  0  0
  4  5  1  0  0  0  0
  5  1  1  0  0  0  0
  6  7  1  0  0  0  0
  6  4  1  0  0  0  0
  8  7  2  0  0  0  0
  9  8  1  0  0  0  0
 10  9  2  0  0  0  0
 10 11  1  0  0  0  0
 11  6  2  0  0  0  0
 12 10  1  0  0  0  0
 13 16  1  0  0  0  0
 13 12  1  0  0  0  0
 14 13  1  0  0  0  0
 15 13  1  0  0  0  0
 17 30  1  0  0  0  0
 18 17  1  0  0  0  0
 19 17  2  0  0  0  0
 19 20  1  0  0  0  0
 20 23  1  0  0  0  0
 21 20  2  0  0  0  0
 22 19  1  0  0  0  0
 23 28  1  0  0  0  0
 24 25  1  0  0  0  0
 24 23  2  0  0  0  0
 25 26  2  0  0  0  0
 26 27  1  0  0  0  0
 28 27  2  0  0  0  0
 30 29  2  0  0  0  0
 30 31  1  0  0  0  0
M  END
>  <minimizedAffinity>
-6.96229744

$$$$

 OpenBabel09122223433D

 31 33  0  0  0  0  0  0  0  0999 V2000
    5.6650   -3.5700    6.6760 C   0  0  0  0  0  0  0  0  0  0  0  0
    4.6460   -2.6890    6.3350 C   0  0  0  0  0  3  0  0  0  0  0  0
    4.0050   -3.1840    5.1740 C   0  0  0  0  0  3  0  0  0  0  0  0
    4.6620   -4.3450    4.8350 C   0  0  0  0  0  0  0  0  0  0  0  0
    5.6680   -4.5690    5.7260 O   0  0  0  0  0  0  0  0  0  0  0  0
    4.5200   -5.3290    3.7640 C   0  0  0  0  0  0  0  0  0  0  0  0
    4.1120   -6.6420    4.0440 C   0  0  0  0  0  3  0  0  0  0  0  0
    3.9680   -7.5790    3.0210 C   0  0  0  0  0  3  0  0  0  0  0  0
    4.2350   -7.2120    1.7050 C   0  0  0  0  0  3  0  0  0  0  0  0
    4.6490   -5.9130    1.3970 C   0  0  0  0  0  0  0  0  0  0  0  0
    4.7850   -4.9780    2.4280 C   0  0  0  0  0  3  0  0  0  0  0  0
    4.8800   -5.7000    0.0680 O   0  0  0  0  0  0  0  0  0  0  0  0
    6.0790   -6.2100   -0.4870 C   0  0  0  0  0  0  0  0  0  0  0  0
    6.9960   -6.4580    0.4720 F   0  0  0  0  0  0  0  0  0  0  0  0
    5.8520   -7.3350   -1.1990 F   0  0  0  0  0  0  0  0  0  0  0  0
    6.5950   -5.2830   -1.3260 F   0  0  0  0  0  0  0  0  0  0  0  0
    6.7390   -4.4330    8.7210 C   0  0  0  0  0  0  0  0  0  0  0  0
    6.6220   -3.5290    7.7280 C   0  0  0  0  0  2  0  0  0  0  0  0
    6.0070   -5.6140    8.7600 N   0  0  0  0  0  4  0  0  0  0  0  0
    4.8350   -5.9330    9.4100 C   0  0  0  0  0  0  0  0  0  0  0  0
    4.5130   -7.1190    9.5280 O   0  0  0  0  0  0  0  0  0  0  0  0
    6.4470   -6.4290    8.3550 H   0  0  0  0  0  0  0  0  0  0  0  0
    3.8800   -4.9020    9.8720 C   0  0  0  0  0  0  0  0  0  0  0  0
    3.9530   -4.4710   11.2020 C   0  0  0  0  0  3  0  0  0  0  0  0
    3.0210   -3.5570   11.6930 C   0  0  0  0  0  3  0  0  0  0  0  0
    2.0040   -3.0850   10.8620 C   0  0  0  0  0  3  0  0  0  0  0  0
    1.9140   -3.5320    9.5430 C   0  0  0  0  0  3  0  0  0  0  0  0
    2.8420   -4.4510    9.0500 C   0  0  0  0  0  3  0  0  0  0  0  0
    7.6590   -4.3750   10.9250 O   0  0  0  0  0  1  0  0  0  0  0  0
    7.8810   -4.0620    9.7190 C   0  0  0  0  0  0  0  0  0  0  0  0
    8.8670   -3.4660    9.1990 O   0  0  0  0  0  0  0  0  0  0  0  0
  1 18  1  0  0  0  0
  2  1  2  0  0  0  0
  3  2  1  0  0  0  0
  4  3  2  0  0  0  0
  4  5  1  0  0  0  0
  5  1  1  0  0  0  0
  6  7  1  0  0  0  0
  6  4  1  0  0  0  0
  8  7  2  0  0  0  0
  9  8  1  0  0  0  0
 10  9  2  0  0  0  0
 10 11  1  0  0  0  0
 11  6  2  0  0  0  0
 12 10  1  0  0  0  0
 13 12  1  0  0  0  0
 13 14  1  0  0  0  0
 15 13  1  0  0  0  0
 16 13  1  0  0  0  0
 17 19  2  3  0  0  0
 17 30  1  0  0  0  0
 18 17  1  0  0  0  0
 19 20  1  0  0  0  0
 20 21  2  0  0  0  0
 20 23  1  0  0  0  0
 22 19  1  0  0  0  0
 23 24  1  0  0  0  0
 24 25  2  0  0  0  0
 26 25  1  0  0  0  0
 27 26  2  0  0  0  0
 28 27  1  0  0  0  0
 28 23  2  0  0  0  0
 30 29  1  0  0  0  0
 31 30  2  0  0  0  0
M  END
>  <minimizedAffinity>
-6.95403337

$$$$

 OpenBabel09122223433D

 31 33  0  0  0  0  0  0  0  0999 V2000
    3.3310   -5.9930    6.9990 C   0  0  0  0  0  0  0  0  0  0  0  0
    1.9840   -6.0200    6.6600 C   0  0  0  0  0  3  0  0  0  0  0  0
    1.8670   -6.5700    5.3610 C   0  0  0  0  0  3  0  0  0  0  0  0
    3.1490   -6.8500    4.9420 C   0  0  0  0  0  0  0  0  0  0  0  0
    4.0280   -6.4890    5.9190 O   0  0  0  0  0  0  0  0  0  0  0  0
    3.7320   -7.4120    3.7260 C   0  0  0  0  0  0  0  0  0  0  0  0
    3.4220   -8.7170    3.3180 C   0  0  0  0  0  3  0  0  0  0  0  0
    3.9710   -9.2510    2.1520 C   0  0  0  0  0  3  0  0  0  0  0  0
    4.8430   -8.4830    1.3840 C   0  0  0  0  0  3  0  0  0  0  0  0
    5.1740   -7.1820    1.7710 C   0  0  0  0  0  0  0  0  0  0  0  0
    4.6150   -6.6520    2.9370 C   0  0  0  0  0  3  0  0  0  0  0  0
    6.0430   -6.5510    0.9260 O   0  0  0  0  0  0  0  0  0  0  0  0
    5.5630   -6.1570   -0.3470 C   0  0  0  0  0  0  0  0  0  0  0  0
    4.3300   -5.6160   -0.2590 F   0  0  0  0  0  0  0  0  0  0  0  0
    6.4020   -5.2800   -0.9390 F   0  0  0  0  0  0  0  0  0  0  0  0
    5.4810   -7.2530   -1.1360 F   0  0  0  0  0  0  0  0  0  0  0  0
    5.1510   -4.8300    8.1890 C   0  0  0  0  0  0  0  0  0  0  0  0
    3.9900   -5.5160    8.1660 C   0  0  0  0  0  2  0  0  0  0  0  0
    5.7890   -4.3820    7.0390 N   0  0  0  0  0  4  0  0  0  0  0  0
    5.3690   -3.5250    6.0460 C   0  0  0  0  0  0  0  0  0  0  0  0
    5.9910   -3.4840    4.9800 O   0  0  0  0  0  0  0  0  0  0  0  0
    6.6580   -4.8380    6.8000 H   0  0  0  0  0  0  0  0  0  0  0  0
    4.2680   -2.5580    6.2470 C   0  0  0  0  0  0  0  0  0  0  0  0
    4.3920   -1.6060    7.2660 C   0  0  0  0  0  3  0  0  0  0  0  0
    3.3420   -0.7270    7.5340 C   0  0  0  0  0  3  0  0  0  0  0  0
    2.1610   -0.8090    6.7970 C   0  0  0  0  0  3  0  0  0  0  0  0
    2.0240   -1.7730    5.7960 C   0  0  0  0  0  3  0  0  0  0  0  0
    3.0710   -2.6570    5.5290 C   0  0  0  0  0  3  0  0  0  0  0  0
    6.5890   -5.1500   10.0700 O   0  0  0  0  0  0  0  0  0  0  0  0
    5.5990   -4.4870    9.6450 C   0  0  0  0  0  0  0  0  0  0  0  0
    4.8930   -3.6120   10.2250 O   0  0  0  0  0  1  0  0  0  0  0  0
  1 18  1  0  0  0  0
  2  1  2  0  0  0  0
  3  2  1  0  0  0  0
  4  3  2  0  0  0  0
  4  5  1  0  0  0  0
  5  1  1  0  0  0  0
  6  4  1  0  0  0  0
  7  6  1  0  0  0  0
  8  7  2  0  0  0  0
  9 10  2  0  0  0  0
  9  8  1  0  0  0  0
 10 11  1  0  0  0  0
 11  6  2  0  0  0  0
 12 10  1  0  0  0  0
 13 14  1  0  0  0  0
 13 12  1  0  0  0  0
 15 13  1  0  0  0  0
 16 13  1  0  0  0  0
 17 30  1  0  0  0  0
 18 17  1  0  0  0  0
 19 17  2  0  0  0  0
 20 23  1  0  0  0  0
 20 19  1  0  0  0  0
 21 20  2  0  0  0  0
 22 19  1  0  0  0  0
 23 24  1  0  0  0  0
 24 25  2  0  0  0  0
 26 25  1  0  0  0  0
 27 26  2  0  0  0  0
 28 27  1  0  0  0  0
 28 23  2  0  0  0  0
 30 29  2  0  0  0  0
 30 31  1  0  0  0  0
M  END
>  <minimizedAffinity>
-6.94977093

$$$$
