
 OpenBabel09132204463D

 31 33  0  0  0  0  0  0  0  0999 V2000
    3.7000   -2.7560    5.7750 C   0  0  0  0  0  0  0  0  0  0  0  0
    2.3630   -2.8890    5.4180 C   0  0  0  0  0  3  0  0  0  0  0  0
    2.2520   -3.9790    4.5220 C   0  0  0  0  0  3  0  0  0  0  0  0
    3.5260   -4.4700    4.3500 C   0  0  0  0  0  0  0  0  0  0  0  0
    4.3980   -3.7260    5.0880 O   0  0  0  0  0  0  0  0  0  0  0  0
    4.1110   -5.5580    3.5690 C   0  0  0  0  0  0  0  0  0  0  0  0
    3.7980   -6.8950    3.8520 C   0  0  0  0  0  3  0  0  0  0  0  0
    4.3480   -7.9330    3.1010 C   0  0  0  0  0  3  0  0  0  0  0  0
    5.2240   -7.6430    2.0580 C   0  0  0  0  0  3  0  0  0  0  0  0
    5.5590   -6.3200    1.7570 C   0  0  0  0  0  0  0  0  0  0  0  0
    4.9980   -5.2840    2.5110 C   0  0  0  0  0  3  0  0  0  0  0  0
    6.4320   -6.1870    0.7150 O   0  0  0  0  0  0  0  0  0  0  0  0
    5.8940   -6.0810   -0.5910 C   0  0  0  0  0  0  0  0  0  0  0  0
    5.8090   -7.2900   -1.1850 F   0  0  0  0  0  0  0  0  0  0  0  0
    4.6770   -5.4970   -0.5760 F   0  0  0  0  0  0  0  0  0  0  0  0
    6.7170   -5.3080   -1.3360 F   0  0  0  0  0  0  0  0  0  0  0  0
    5.3350   -2.0900    7.4950 C   0  0  0  0  0  0  0  0  0  0  0  0
    4.3520   -1.8120    6.6160 C   0  0  0  0  0  2  0  0  0  0  0  0
    5.9360   -3.3390    7.5910 N   0  0  0  0  0  4  0  0  0  0  0  0
    5.5780   -4.4640    8.3000 C   0  0  0  0  0  0  0  0  0  0  0  0
    6.4050   -5.3690    8.4550 O   0  0  0  0  0  0  0  0  0  0  0  0
    6.8560   -3.4280    7.1820 H   0  0  0  0  0  0  0  0  0  0  0  0
    4.1990   -4.6900    8.7850 C   0  0  0  0  0  0  0  0  0  0  0  0
    3.3500   -5.5060    8.0290 C   0  0  0  0  0  3  0  0  0  0  0  0
    2.0200   -5.6800    8.4150 C   0  0  0  0  0  3  0  0  0  0  0  0
    1.5340   -5.0260    9.5470 C   0  0  0  0  0  3  0  0  0  0  0  0
    2.3720   -4.1930   10.2900 C   0  0  0  0  0  3  0  0  0  0  0  0
    3.7010   -4.0130    9.9030 C   0  0  0  0  0  3  0  0  0  0  0  0
    6.5960   -0.0650    7.6350 O   0  0  0  0  0  0  0  0  0  0  0  0
    5.8020   -0.8180    8.2710 C   0  0  0  0  0  0  0  0  0  0  0  0
    5.3520   -0.7200    9.4490 O   0  0  0  0  0  1  0  0  0  0  0  0
  1 18  1  0  0  0  0
  2  1  2  0  0  0  0
  3  2  1  0  0  0  0
  4  3  2  0  0  0  0
  4  5  1  0  0  0  0
  5  1  1  0  0  0  0
  6  7  1  0  0  0  0
  6  4  1  0  0  0  0
  8  7  2  0  0  0  0
  9  8  1  0  0  0  0
 10  9  2  0  0  0  0
 10 11  1  0  0  0  0
 11  6  2  0  0  0  0
 12 10  1  0  0  0  0
 13 15  1  0  0  0  0
 13 12  1  0  0  0  0
 14 13  1  0  0  0  0
 16 13  1  0  0  0  0
 17 19  2  0  0  0  0
 17 30  1  0  0  0  0
 18 17  1  0  0  0  0
 19 20  1  0  0  0  0
 20 21  2  0  0  0  0
 20 23  1  0  0  0  0
 22 19  1  0  0  0  0
 23 28  1  0  0  0  0
 24 25  1  0  0  0  0
 24 23  2  0  0  0  0
 25 26  2  0  0  0  0
 26 27  1  0  0  0  0
 28 27  2  0  0  0  0
 29 30  2  0  0  0  0
 30 31  1  0  0  0  0
M  END
>  <minimizedAffinity>
-7.42854023

$$$$
