
 OpenBabel09132204463D

 31 33  0  0  0  0  0  0  0  0999 V2000
    5.6650   -3.5700    6.6760 C   0  0  0  0  0  0  0  0  0  0  0  0
    4.6460   -2.6890    6.3350 C   0  0  0  0  0  3  0  0  0  0  0  0
    4.0050   -3.1840    5.1740 C   0  0  0  0  0  3  0  0  0  0  0  0
    4.6620   -4.3450    4.8350 C   0  0  0  0  0  0  0  0  0  0  0  0
    5.6680   -4.5690    5.7260 O   0  0  0  0  0  0  0  0  0  0  0  0
    4.5200   -5.3290    3.7640 C   0  0  0  0  0  0  0  0  0  0  0  0
    4.1120   -6.6420    4.0440 C   0  0  0  0  0  3  0  0  0  0  0  0
    3.9680   -7.5790    3.0210 C   0  0  0  0  0  3  0  0  0  0  0  0
    4.2350   -7.2120    1.7050 C   0  0  0  0  0  3  0  0  0  0  0  0
    4.6490   -5.9130    1.3970 C   0  0  0  0  0  0  0  0  0  0  0  0
    4.7850   -4.9780    2.4280 C   0  0  0  0  0  3  0  0  0  0  0  0
    4.8800   -5.7000    0.0680 O   0  0  0  0  0  0  0  0  0  0  0  0
    6.0790   -6.2100   -0.4870 C   0  0  0  0  0  0  0  0  0  0  0  0
    6.9960   -6.4580    0.4720 F   0  0  0  0  0  0  0  0  0  0  0  0
    5.8520   -7.3350   -1.1990 F   0  0  0  0  0  0  0  0  0  0  0  0
    6.5950   -5.2830   -1.3260 F   0  0  0  0  0  0  0  0  0  0  0  0
    6.7390   -4.4330    8.7210 C   0  0  0  0  0  0  0  0  0  0  0  0
    6.6220   -3.5290    7.7280 C   0  0  0  0  0  2  0  0  0  0  0  0
    6.0070   -5.6140    8.7600 N   0  0  0  0  0  4  0  0  0  0  0  0
    4.8350   -5.9330    9.4100 C   0  0  0  0  0  0  0  0  0  0  0  0
    4.5130   -7.1190    9.5280 O   0  0  0  0  0  0  0  0  0  0  0  0
    6.4470   -6.4290    8.3550 H   0  0  0  0  0  0  0  0  0  0  0  0
    3.8800   -4.9020    9.8720 C   0  0  0  0  0  0  0  0  0  0  0  0
    3.9530   -4.4710   11.2020 C   0  0  0  0  0  3  0  0  0  0  0  0
    3.0210   -3.5570   11.6930 C   0  0  0  0  0  3  0  0  0  0  0  0
    2.0040   -3.0850   10.8620 C   0  0  0  0  0  3  0  0  0  0  0  0
    1.9140   -3.5320    9.5430 C   0  0  0  0  0  3  0  0  0  0  0  0
    2.8420   -4.4510    9.0500 C   0  0  0  0  0  3  0  0  0  0  0  0
    7.6590   -4.3750   10.9250 O   0  0  0  0  0  1  0  0  0  0  0  0
    7.8810   -4.0620    9.7190 C   0  0  0  0  0  0  0  0  0  0  0  0
    8.8670   -3.4660    9.1990 O   0  0  0  0  0  0  0  0  0  0  0  0
  1 18  1  0  0  0  0
  2  1  2  0  0  0  0
  3  2  1  0  0  0  0
  4  3  2  0  0  0  0
  4  5  1  0  0  0  0
  5  1  1  0  0  0  0
  6  7  1  0  0  0  0
  6  4  1  0  0  0  0
  8  7  2  0  0  0  0
  9  8  1  0  0  0  0
 10  9  2  0  0  0  0
 10 11  1  0  0  0  0
 11  6  2  0  0  0  0
 12 10  1  0  0  0  0
 13 12  1  0  0  0  0
 13 14  1  0  0  0  0
 15 13  1  0  0  0  0
 16 13  1  0  0  0  0
 17 19  2  3  0  0  0
 17 30  1  0  0  0  0
 18 17  1  0  0  0  0
 19 20  1  0  0  0  0
 20 21  2  0  0  0  0
 20 23  1  0  0  0  0
 22 19  1  0  0  0  0
 23 24  1  0  0  0  0
 24 25  2  0  0  0  0
 26 25  1  0  0  0  0
 27 26  2  0  0  0  0
 28 27  1  0  0  0  0
 28 23  2  0  0  0  0
 30 29  1  0  0  0  0
 31 30  2  0  0  0  0
M  END
>  <minimizedAffinity>
-6.95403337

$$$$
