
 OpenBabel09132204463D

 31 33  0  0  0  0  0  0  0  0999 V2000
    3.3310   -5.9930    6.9990 C   0  0  0  0  0  0  0  0  0  0  0  0
    1.9840   -6.0200    6.6600 C   0  0  0  0  0  3  0  0  0  0  0  0
    1.8670   -6.5700    5.3610 C   0  0  0  0  0  3  0  0  0  0  0  0
    3.1490   -6.8500    4.9420 C   0  0  0  0  0  0  0  0  0  0  0  0
    4.0280   -6.4890    5.9190 O   0  0  0  0  0  0  0  0  0  0  0  0
    3.7320   -7.4120    3.7260 C   0  0  0  0  0  0  0  0  0  0  0  0
    3.4220   -8.7170    3.3180 C   0  0  0  0  0  3  0  0  0  0  0  0
    3.9710   -9.2510    2.1520 C   0  0  0  0  0  3  0  0  0  0  0  0
    4.8430   -8.4830    1.3840 C   0  0  0  0  0  3  0  0  0  0  0  0
    5.1740   -7.1820    1.7710 C   0  0  0  0  0  0  0  0  0  0  0  0
    4.6150   -6.6520    2.9370 C   0  0  0  0  0  3  0  0  0  0  0  0
    6.0430   -6.5510    0.9260 O   0  0  0  0  0  0  0  0  0  0  0  0
    5.5630   -6.1570   -0.3470 C   0  0  0  0  0  0  0  0  0  0  0  0
    4.3300   -5.6160   -0.2590 F   0  0  0  0  0  0  0  0  0  0  0  0
    6.4020   -5.2800   -0.9390 F   0  0  0  0  0  0  0  0  0  0  0  0
    5.4810   -7.2530   -1.1360 F   0  0  0  0  0  0  0  0  0  0  0  0
    5.1510   -4.8300    8.1890 C   0  0  0  0  0  0  0  0  0  0  0  0
    3.9900   -5.5160    8.1660 C   0  0  0  0  0  2  0  0  0  0  0  0
    5.7890   -4.3820    7.0390 N   0  0  0  0  0  4  0  0  0  0  0  0
    5.3690   -3.5250    6.0460 C   0  0  0  0  0  0  0  0  0  0  0  0
    5.9910   -3.4840    4.9800 O   0  0  0  0  0  0  0  0  0  0  0  0
    6.6580   -4.8380    6.8000 H   0  0  0  0  0  0  0  0  0  0  0  0
    4.2680   -2.5580    6.2470 C   0  0  0  0  0  0  0  0  0  0  0  0
    4.3920   -1.6060    7.2660 C   0  0  0  0  0  3  0  0  0  0  0  0
    3.3420   -0.7270    7.5340 C   0  0  0  0  0  3  0  0  0  0  0  0
    2.1610   -0.8090    6.7970 C   0  0  0  0  0  3  0  0  0  0  0  0
    2.0240   -1.7730    5.7960 C   0  0  0  0  0  3  0  0  0  0  0  0
    3.0710   -2.6570    5.5290 C   0  0  0  0  0  3  0  0  0  0  0  0
    6.5890   -5.1500   10.0700 O   0  0  0  0  0  0  0  0  0  0  0  0
    5.5990   -4.4870    9.6450 C   0  0  0  0  0  0  0  0  0  0  0  0
    4.8930   -3.6120   10.2250 O   0  0  0  0  0  1  0  0  0  0  0  0
  1 18  1  0  0  0  0
  2  1  2  0  0  0  0
  3  2  1  0  0  0  0
  4  3  2  0  0  0  0
  4  5  1  0  0  0  0
  5  1  1  0  0  0  0
  6  4  1  0  0  0  0
  7  6  1  0  0  0  0
  8  7  2  0  0  0  0
  9 10  2  0  0  0  0
  9  8  1  0  0  0  0
 10 11  1  0  0  0  0
 11  6  2  0  0  0  0
 12 10  1  0  0  0  0
 13 14  1  0  0  0  0
 13 12  1  0  0  0  0
 15 13  1  0  0  0  0
 16 13  1  0  0  0  0
 17 30  1  0  0  0  0
 18 17  1  0  0  0  0
 19 17  2  0  0  0  0
 20 23  1  0  0  0  0
 20 19  1  0  0  0  0
 21 20  2  0  0  0  0
 22 19  1  0  0  0  0
 23 24  1  0  0  0  0
 24 25  2  0  0  0  0
 26 25  1  0  0  0  0
 27 26  2  0  0  0  0
 28 27  1  0  0  0  0
 28 23  2  0  0  0  0
 30 29  2  0  0  0  0
 30 31  1  0  0  0  0
M  END
>  <minimizedAffinity>
-6.94977093

$$$$
