
 OpenBabel09132204463D

 31 33  0  0  0  0  0  0  0  0999 V2000
    4.8670   -4.7050    5.6030 C   0  0  0  0  0  0  0  0  0  0  0  0
    3.6440   -5.3340    5.8040 C   0  0  0  0  0  3  0  0  0  0  0  0
    3.3460   -6.0970    4.6500 C   0  0  0  0  0  3  0  0  0  0  0  0
    4.3890   -5.8990    3.7740 C   0  0  0  0  0  0  0  0  0  0  0  0
    5.2940   -5.0510    4.3390 O   0  0  0  0  0  0  0  0  0  0  0  0
    4.7050   -6.3740    2.4290 C   0  0  0  0  0  0  0  0  0  0  0  0
    4.1240   -7.5470    1.9260 C   0  0  0  0  0  3  0  0  0  0  0  0
    4.4180   -7.9960    0.6390 C   0  0  0  0  0  3  0  0  0  0  0  0
    5.3030   -7.2750   -0.1590 C   0  0  0  0  0  3  0  0  0  0  0  0
    5.9020   -6.1070    0.3180 C   0  0  0  0  0  0  0  0  0  0  0  0
    5.5980   -5.6600    1.6080 C   0  0  0  0  0  3  0  0  0  0  0  0
    6.7510   -5.5100   -0.5700 O   0  0  0  0  0  0  0  0  0  0  0  0
    8.0440   -5.1530   -0.1140 C   0  0  0  0  0  0  0  0  0  0  0  0
    8.8380   -4.7790   -1.1400 F   0  0  0  0  0  0  0  0  0  0  0  0
    7.9860   -4.1600    0.7990 F   0  0  0  0  0  0  0  0  0  0  0  0
    8.6070   -6.2310    0.4780 F   0  0  0  0  0  0  0  0  0  0  0  0
    5.3050   -2.5120    6.6420 C   0  0  0  0  0  0  0  0  0  0  0  0
    5.6030   -3.8100    6.4280 C   0  0  0  0  0  2  0  0  0  0  0  0
    4.1390   -1.9160    6.1770 N   0  0  0  0  0  4  0  0  0  0  0  0
    2.8950   -1.7860    6.7530 C   0  0  0  0  0  0  0  0  0  0  0  0
    1.9330   -1.4640    6.0480 O   0  0  0  0  0  0  0  0  0  0  0  0
    4.1370   -1.6300    5.2070 H   0  0  0  0  0  0  0  0  0  0  0  0
    2.6820   -1.9010    8.2120 C   0  0  0  0  0  0  0  0  0  0  0  0
    3.0000   -0.8050    9.0220 C   0  0  0  0  0  3  0  0  0  0  0  0
    2.8840   -0.9020   10.4090 C   0  0  0  0  0  3  0  0  0  0  0  0
    2.4670   -2.1000   10.9900 C   0  0  0  0  0  3  0  0  0  0  0  0
    2.1720   -3.2030   10.1860 C   0  0  0  0  0  3  0  0  0  0  0  0
    2.2920   -3.1100    8.7980 C   0  0  0  0  0  3  0  0  0  0  0  0
    7.1360   -1.0220    7.0060 O   0  0  0  0  0  0  0  0  0  0  0  0
    6.3420   -1.8210    7.5830 C   0  0  0  0  0  0  0  0  0  0  0  0
    6.2770   -2.1740    8.7950 O   0  0  0  0  0  1  0  0  0  0  0  0
  1  2  2  0  0  0  0
  1 18  1  0  0  0  0
  3  2  1  0  0  0  0
  4  5  1  0  0  0  0
  4  3  2  0  0  0  0
  5  1  1  0  0  0  0
  6  4  1  0  0  0  0
  7  6  1  0  0  0  0
  8  7  2  0  0  0  0
  9 10  2  0  0  0  0
  9  8  1  0  0  0  0
 10 11  1  0  0  0  0
 11  6  2  0  0  0  0
 12 13  1  0  0  0  0
 12 10  1  0  0  0  0
 13 16  1  0  0  0  0
 13 15  1  0  0  0  0
 14 13  1  0  0  0  0
 17 30  1  0  0  0  0
 18 17  1  0  0  0  0
 19 17  2  3  0  0  0
 19 20  1  0  0  0  0
 20 23  1  0  0  0  0
 21 20  2  0  0  0  0
 22 19  1  0  0  0  0
 23 28  2  0  0  0  0
 23 24  1  0  0  0  0
 24 25  2  0  0  0  0
 25 26  1  0  0  0  0
 27 26  2  0  0  0  0
 28 27  1  0  0  0  0
 29 30  2  0  0  0  0
 30 31  1  0  0  0  0
M  END
>  <minimizedAffinity>
-7.05422688

$$$$
