
 OpenBabel09132204463D

 36 39  0  0  0  0  0  0  0  0999 V2000
    3.7630   -2.7500    5.8580 C   0  0  0  0  0  0  0  0  0  0  0  0
    4.7930   -3.6710    6.0180 C   0  0  0  0  0  0  0  0  0  0  0  0
    5.0400   -4.2420    4.7220 C   0  0  0  0  0  0  0  0  0  0  0  0
    5.8980   -5.2560    4.2480 C   0  0  0  0  0  3  0  0  0  0  0  0
    5.8390   -5.6560    2.9080 C   0  0  0  0  0  3  0  0  0  0  0  0
    4.9370   -5.0720    2.0140 C   0  0  0  0  0  0  0  0  0  0  0  0
    4.0930   -4.0450    2.4720 C   0  0  0  0  0  3  0  0  0  0  0  0
    4.1690   -3.6320    3.8150 C   0  0  0  0  0  0  0  0  0  0  0  0
    3.5180   -2.6280    4.4960 N   0  0  0  0  0  0  0  0  0  0  0  0
    1.6550   -2.2160    8.9290 C   0  0  0  0  0  0  0  0  0  0  0  0
    2.3950   -2.8200    7.8990 C   0  0  0  0  0  3  0  0  0  0  0  0
    2.9750   -2.0610    6.8740 C   0  0  0  0  0  0  0  0  0  0  0  0
    2.8090   -0.6780    6.8640 C   0  0  0  0  0  3  0  0  0  0  0  0
    2.0720   -0.0610    7.8760 C   0  0  0  0  0  3  0  0  0  0  0  0
    1.5030   -0.8220    8.9040 C   0  0  0  0  0  0  0  0  0  0  0  0
    0.6490    0.0180   10.1460 Cl  0  0  0  0  0  0  0  0  0  0  0  0
    1.0880   -3.0990   10.0060 C   0  0  0  0  0  2  0  0  0  0  0  0
    2.7910   -4.1420   11.5350 C   0  0  0  0  0  1  0  0  0  0  0  0
    1.9500   -4.3120   10.3020 N   0  0  0  0  0  4  0  0  0  0  0  0
    1.1350   -5.5710   10.3540 C   0  0  0  0  0  1  0  0  0  0  0  0
    2.6010   -4.4150    9.5120 H   0  0  0  0  0  0  0  0  0  0  0  0
    5.4480   -4.0630    7.3260 C   0  0  0  0  0  3  0  0  0  0  0  0
    5.2770   -2.9930    8.4180 C   0  0  0  0  0  2  0  0  0  0  0  0
    5.9720   -3.4010    9.7160 C   0  0  0  0  0  2  0  0  0  0  0  0
    5.5070   -4.7730   10.1950 C   0  0  0  0  0  2  0  0  0  0  0  0
    5.6910   -5.8380    9.1180 C   0  0  0  0  0  2  0  0  0  0  0  0
    4.9950   -5.4480    7.8160 C   0  0  0  0  0  2  0  0  0  0  0  0
    4.8700   -5.5380    0.5710 C   0  0  0  0  0  0  0  0  0  0  0  0
    3.7130   -5.7390    0.0850 O   0  0  0  0  0  1  0  0  0  0  0  0
    5.9750   -5.6950   -0.0370 O   0  0  0  0  0  0  0  0  0  0  0  0
    2.6280   -1.6150    3.9260 C   0  0  0  0  0  2  0  0  0  0  0  0
    1.1390   -1.7410    4.1660 C   0  0  0  0  0  0  0  0  0  0  0  0
    0.4260   -0.7760    3.8660 O   0  0  0  0  0  0  0  0  0  0  0  0
    0.6000   -2.9450    4.5900 N   0  0  0  0  0  0  0  0  0  0  0  0
    1.3410   -4.1820    4.7760 C   0  0  0  0  0  1  0  0  0  0  0  0
   -0.7850   -2.9640    5.0410 C   0  0  0  0  0  1  0  0  0  0  0  0
  1  2  2  0  0  0  0
  1 12  1  0  0  0  0
  2 22  1  0  0  0  0
  3  2  1  0  0  0  0
  4  3  1  0  0  0  0
  5  4  2  0  0  0  0
  6  7  2  0  0  0  0
  6  5  1  0  0  0  0
  7  8  1  0  0  0  0
  8  9  1  0  0  0  0
  8  3  2  0  0  0  0
  9  1  1  0  0  0  0
 10 17  1  0  0  0  0
 11 10  2  0  0  0  0
 12 11  1  0  0  0  0
 13 12  2  0  0  0  0
 13 14  1  0  0  0  0
 14 15  2  0  0  0  0
 15 10  1  0  0  0  0
 15 16  1  0  0  0  0
 17 19  1  0  0  0  0
 19 20  1  0  0  0  0
 19 18  1  0  0  0  0
 21 19  1  0  0  0  0
 22 27  1  0  0  0  0
 22 23  1  0  0  0  0
 23 24  1  0  0  0  0
 24 25  1  0  0  0  0
 26 25  1  0  0  0  0
 27 26  1  0  0  0  0
 28  6  1  0  0  0  0
 29 28  1  0  0  0  0
 30 28  2  0  0  0  0
 31 32  1  0  0  0  0
 31  9  1  0  0  0  0
 32 34  1  0  0  0  0
 33 32  2  0  0  0  0
 34 35  1  0  0  0  0
 34 36  1  0  0  0  0
M  END
>  <minimizedAffinity>
10.8965292

$$$$
