
 OpenBabel09132204463D

 36 39  0  0  0  0  0  0  0  0999 V2000
  -10.0520    9.0010    6.2380 C   0  0  0  0  0  0  0  0  0  0  0  0
  -10.6740   10.1910    5.8730 C   0  0  0  0  0  0  0  0  0  0  0  0
  -10.6920   11.0220    7.0450 C   0  0  0  0  0  0  0  0  0  0  0  0
  -11.2300   12.2940    7.3330 C   0  0  0  0  0  3  0  0  0  0  0  0
  -11.1570   12.8090    8.6320 C   0  0  0  0  0  3  0  0  0  0  0  0
  -10.5620   12.0850    9.6690 C   0  0  0  0  0  0  0  0  0  0  0  0
  -10.0040   10.8260    9.3870 C   0  0  0  0  0  3  0  0  0  0  0  0
  -10.0600   10.3200    8.0760 C   0  0  0  0  0  0  0  0  0  0  0  0
   -9.5490    9.1690    7.5220 N   0  0  0  0  0  0  0  0  0  0  0  0
   -9.4930    6.5910    3.4030 C   0  0  0  0  0  0  0  0  0  0  0  0
   -9.6230    7.7720    4.1540 C   0  0  0  0  0  3  0  0  0  0  0  0
   -9.9730    7.7400    5.5100 C   0  0  0  0  0  0  0  0  0  0  0  0
  -10.2080    6.5150    6.1320 C   0  0  0  0  0  3  0  0  0  0  0  0
  -10.0870    5.3320    5.4000 C   0  0  0  0  0  3  0  0  0  0  0  0
   -9.7280    5.3680    4.0480 C   0  0  0  0  0  0  0  0  0  0  0  0
   -9.5520    3.8620    3.2240 Cl  0  0  0  0  0  0  0  0  0  0  0  0
   -9.0880    6.7100    1.9590 C   0  0  0  0  0  2  0  0  0  0  0  0
   -9.6450    7.8350   -0.2200 C   0  0  0  0  0  1  0  0  0  0  0  0
  -10.1760    7.2990    1.0790 N   0  0  0  0  0  4  0  0  0  0  0  0
  -11.2990    6.3270    0.8630 C   0  0  0  0  0  1  0  0  0  0  0  0
  -10.5720    8.0980    1.5900 H   0  0  0  0  0  0  0  0  0  0  0  0
  -11.2980   10.4980    4.5280 C   0  0  0  0  0  3  0  0  0  0  0  0
  -10.9660   11.9150    4.0300 C   0  0  0  0  0  2  0  0  0  0  0  0
  -11.6330   12.2080    2.6870 C   0  0  0  0  0  2  0  0  0  0  0  0
  -11.2850   11.1490    1.6440 C   0  0  0  0  0  2  0  0  0  0  0  0
  -11.6280    9.7450    2.1310 C   0  0  0  0  0  2  0  0  0  0  0  0
  -10.9620    9.4340    3.4700 C   0  0  0  0  0  2  0  0  0  0  0  0
  -10.5170   12.6490   11.0780 C   0  0  0  0  0  0  0  0  0  0  0  0
  -11.6260   12.9920   11.5970 O   0  0  0  0  0  0  0  0  0  0  0  0
   -9.3740   12.7400   11.6280 O   0  0  0  0  0  1  0  0  0  0  0  0
   -8.6690    8.1970    8.1750 C   0  0  0  0  0  2  0  0  0  0  0  0
   -8.8490    7.9390    9.6550 C   0  0  0  0  0  0  0  0  0  0  0  0
   -8.0090    8.4160   10.4280 O   0  0  0  0  0  0  0  0  0  0  0  0
   -9.9870    7.2970   10.1190 N   0  0  0  0  0  0  0  0  0  0  0  0
  -11.1130    6.8810    9.3000 C   0  0  0  0  0  1  0  0  0  0  0  0
  -10.0150    6.8520   11.5060 C   0  0  0  0  0  1  0  0  0  0  0  0
  1  9  1  0  0  0  0
  2  1  2  0  0  0  0
  2  3  1  0  0  0  0
  3  4  2  0  0  0  0
  3  8  1  0  0  0  0
  4  5  1  0  0  0  0
  5  6  2  0  0  0  0
  6 28  1  0  0  0  0
  7  6  1  0  0  0  0
  8  7  2  0  0  0  0
  9  8  1  0  0  0  0
  9 31  1  0  0  0  0
 10 15  2  0  0  0  0
 10 11  1  0  0  0  0
 11 12  2  0  0  0  0
 12 13  1  0  0  0  0
 12  1  1  0  0  0  0
 14 13  2  0  0  0  0
 15 14  1  0  0  0  0
 16 15  1  0  0  0  0
 17 10  1  0  0  0  0
 18 19  1  0  0  0  0
 19 21  1  0  0  0  0
 19 17  1  0  0  0  0
 20 19  1  0  0  0  0
 22  2  1  0  0  0  0
 23 22  1  0  0  0  0
 24 23  1  0  0  0  0
 25 26  1  0  0  0  0
 25 24  1  0  0  0  0
 26 27  1  0  0  0  0
 27 22  1  0  0  0  0
 28 29  2  0  0  0  0
 28 30  1  0  0  0  0
 31 32  1  0  0  0  0
 32 34  1  0  0  0  0
 32 33  2  0  0  0  0
 34 36  1  0  0  0  0
 35 34  1  0  0  0  0
M  END
>  <minimizedAffinity>
10.277565

$$$$
