
 OpenBabel09132200163D

 36 39  0  0  0  0  0  0  0  0999 V2000
    3.8270   -2.8640    7.3200 C   0  0  0  0  0  0  0  0  0  0  0  0
    4.3340   -4.1590    7.3580 C   0  0  0  0  0  0  0  0  0  0  0  0
    4.5720   -4.5470    5.9940 C   0  0  0  0  0  0  0  0  0  0  0  0
    5.0100   -5.7380    5.3790 C   0  0  0  0  0  3  0  0  0  0  0  0
    5.0560   -5.8320    3.9840 C   0  0  0  0  0  3  0  0  0  0  0  0
    4.6680   -4.7640    3.1700 C   0  0  0  0  0  0  0  0  0  0  0  0
    4.2500   -3.5650    3.7740 C   0  0  0  0  0  3  0  0  0  0  0  0
    4.2250   -3.4670    5.1770 C   0  0  0  0  0  0  0  0  0  0  0  0
    3.9250   -2.4130    6.0100 N   0  0  0  0  0  0  0  0  0  0  0  0
    3.5130   -0.7260   10.4010 C   0  0  0  0  0  0  0  0  0  0  0  0
    4.0380   -1.5200    9.3670 C   0  0  0  0  0  3  0  0  0  0  0  0
    3.2100   -2.0830    8.3870 C   0  0  0  0  0  0  0  0  0  0  0  0
    1.8350   -1.8640    8.4380 C   0  0  0  0  0  3  0  0  0  0  0  0
    1.2960   -1.0820    9.4610 C   0  0  0  0  0  3  0  0  0  0  0  0
    2.1270   -0.5140   10.4320 C   0  0  0  0  0  0  0  0  0  0  0  0
    1.3900    0.4810   11.6360 Cl  0  0  0  0  0  0  0  0  0  0  0  0
    4.4710   -0.1370   11.3990 C   0  0  0  0  0  2  0  0  0  0  0  0
    5.8240    0.1970    9.3050 C   0  0  0  0  0  1  0  0  0  0  0  0
    5.6560    0.5580   10.7540 N   0  0  0  0  0  4  0  0  0  0  0  0
    5.6030    2.0440   10.9550 C   0  0  0  0  0  1  0  0  0  0  0  0
    6.4980    0.2250   11.2420 H   0  0  0  0  0  0  0  0  0  0  0  0
    4.4990   -5.0200    8.5920 C   0  0  0  0  0  3  0  0  0  0  0  0
    5.8130   -4.7370    9.3400 C   0  0  0  0  0  2  0  0  0  0  0  0
    5.9680   -5.6390   10.5630 C   0  0  0  0  0  2  0  0  0  0  0  0
    4.7600   -5.5410   11.4910 C   0  0  0  0  0  2  0  0  0  0  0  0
    3.4580   -5.8370   10.7530 C   0  0  0  0  0  2  0  0  0  0  0  0
    3.2850   -4.9360    9.5310 C   0  0  0  0  0  2  0  0  0  0  0  0
    4.6990   -4.8940    1.6580 C   0  0  0  0  0  0  0  0  0  0  0  0
    5.8430   -4.9630    1.1090 O   0  0  0  0  0  1  0  0  0  0  0  0
    3.5780   -4.9190    1.0580 O   0  0  0  0  0  0  0  0  0  0  0  0
    3.6620   -1.0280    5.6130 C   0  0  0  0  0  2  0  0  0  0  0  0
    2.2240   -0.5750    5.4790 C   0  0  0  0  0  0  0  0  0  0  0  0
    1.7980    0.2370    6.3100 O   0  0  0  0  0  0  0  0  0  0  0  0
    1.4660   -0.9690    4.3880 N   0  0  0  0  0  0  0  0  0  0  0  0
    1.9500   -1.7590    3.2670 C   0  0  0  0  0  1  0  0  0  0  0  0
    0.0320   -0.7190    4.4130 C   0  0  0  0  0  1  0  0  0  0  0  0
  1  2  2  0  0  0  0
  1 12  1  0  0  0  0
  2 22  1  0  0  0  0
  3  2  1  0  0  0  0
  4  3  1  0  0  0  0
  5  4  2  0  0  0  0
  6  7  2  0  0  0  0
  6  5  1  0  0  0  0
  7  8  1  0  0  0  0
  8  3  2  0  0  0  0
  8  9  1  0  0  0  0
  9  1  1  0  0  0  0
 10 15  1  0  0  0  0
 10 17  1  0  0  0  0
 11 10  2  0  0  0  0
 12 13  2  0  0  0  0
 12 11  1  0  0  0  0
 13 14  1  0  0  0  0
 14 15  2  0  0  0  0
 15 16  1  0  0  0  0
 18 19  1  0  0  0  0
 19 20  1  0  0  0  0
 19 21  1  0  0  0  0
 19 17  1  0  0  0  0
 22 23  1  0  0  0  0
 22 27  1  0  0  0  0
 23 24  1  0  0  0  0
 24 25  1  0  0  0  0
 26 25  1  0  0  0  0
 27 26  1  0  0  0  0
 28  6  1  0  0  0  0
 29 28  1  0  0  0  0
 30 28  2  0  0  0  0
 31  9  1  0  0  0  0
 32 31  1  0  0  0  0
 32 33  2  0  0  0  0
 34 36  1  0  0  0  0
 34 32  1  0  0  0  0
 35 34  1  0  0  0  0
M  END
>  <minimizedAffinity>
8.19761181

$$$$

 OpenBabel09132200163D

 36 39  0  0  0  0  0  0  0  0999 V2000
  -10.0520    9.0010    6.2380 C   0  0  0  0  0  0  0  0  0  0  0  0
  -10.6740   10.1910    5.8730 C   0  0  0  0  0  0  0  0  0  0  0  0
  -10.6920   11.0220    7.0450 C   0  0  0  0  0  0  0  0  0  0  0  0
  -11.2300   12.2940    7.3330 C   0  0  0  0  0  3  0  0  0  0  0  0
  -11.1570   12.8090    8.6320 C   0  0  0  0  0  3  0  0  0  0  0  0
  -10.5620   12.0850    9.6690 C   0  0  0  0  0  0  0  0  0  0  0  0
  -10.0040   10.8260    9.3870 C   0  0  0  0  0  3  0  0  0  0  0  0
  -10.0600   10.3200    8.0760 C   0  0  0  0  0  0  0  0  0  0  0  0
   -9.5490    9.1690    7.5220 N   0  0  0  0  0  0  0  0  0  0  0  0
   -9.4930    6.5910    3.4030 C   0  0  0  0  0  0  0  0  0  0  0  0
   -9.6230    7.7720    4.1540 C   0  0  0  0  0  3  0  0  0  0  0  0
   -9.9730    7.7400    5.5100 C   0  0  0  0  0  0  0  0  0  0  0  0
  -10.2080    6.5150    6.1320 C   0  0  0  0  0  3  0  0  0  0  0  0
  -10.0870    5.3320    5.4000 C   0  0  0  0  0  3  0  0  0  0  0  0
   -9.7280    5.3680    4.0480 C   0  0  0  0  0  0  0  0  0  0  0  0
   -9.5520    3.8620    3.2240 Cl  0  0  0  0  0  0  0  0  0  0  0  0
   -9.0880    6.7100    1.9590 C   0  0  0  0  0  2  0  0  0  0  0  0
   -9.6450    7.8350   -0.2200 C   0  0  0  0  0  1  0  0  0  0  0  0
  -10.1760    7.2990    1.0790 N   0  0  0  0  0  4  0  0  0  0  0  0
  -11.2990    6.3270    0.8630 C   0  0  0  0  0  1  0  0  0  0  0  0
  -10.5720    8.0980    1.5900 H   0  0  0  0  0  0  0  0  0  0  0  0
  -11.2980   10.4980    4.5280 C   0  0  0  0  0  3  0  0  0  0  0  0
  -10.9660   11.9150    4.0300 C   0  0  0  0  0  2  0  0  0  0  0  0
  -11.6330   12.2080    2.6870 C   0  0  0  0  0  2  0  0  0  0  0  0
  -11.2850   11.1490    1.6440 C   0  0  0  0  0  2  0  0  0  0  0  0
  -11.6280    9.7450    2.1310 C   0  0  0  0  0  2  0  0  0  0  0  0
  -10.9620    9.4340    3.4700 C   0  0  0  0  0  2  0  0  0  0  0  0
  -10.5170   12.6490   11.0780 C   0  0  0  0  0  0  0  0  0  0  0  0
  -11.6260   12.9920   11.5970 O   0  0  0  0  0  0  0  0  0  0  0  0
   -9.3740   12.7400   11.6280 O   0  0  0  0  0  1  0  0  0  0  0  0
   -8.6690    8.1970    8.1750 C   0  0  0  0  0  2  0  0  0  0  0  0
   -8.8490    7.9390    9.6550 C   0  0  0  0  0  0  0  0  0  0  0  0
   -8.0090    8.4160   10.4280 O   0  0  0  0  0  0  0  0  0  0  0  0
   -9.9870    7.2970   10.1190 N   0  0  0  0  0  0  0  0  0  0  0  0
  -11.1130    6.8810    9.3000 C   0  0  0  0  0  1  0  0  0  0  0  0
  -10.0150    6.8520   11.5060 C   0  0  0  0  0  1  0  0  0  0  0  0
  1  9  1  0  0  0  0
  2  1  2  0  0  0  0
  2  3  1  0  0  0  0
  3  4  2  0  0  0  0
  3  8  1  0  0  0  0
  4  5  1  0  0  0  0
  5  6  2  0  0  0  0
  6 28  1  0  0  0  0
  7  6  1  0  0  0  0
  8  7  2  0  0  0  0
  9  8  1  0  0  0  0
  9 31  1  0  0  0  0
 10 15  2  0  0  0  0
 10 11  1  0  0  0  0
 11 12  2  0  0  0  0
 12 13  1  0  0  0  0
 12  1  1  0  0  0  0
 14 13  2  0  0  0  0
 15 14  1  0  0  0  0
 16 15  1  0  0  0  0
 17 10  1  0  0  0  0
 18 19  1  0  0  0  0
 19 21  1  0  0  0  0
 19 17  1  0  0  0  0
 20 19  1  0  0  0  0
 22  2  1  0  0  0  0
 23 22  1  0  0  0  0
 24 23  1  0  0  0  0
 25 26  1  0  0  0  0
 25 24  1  0  0  0  0
 26 27  1  0  0  0  0
 27 22  1  0  0  0  0
 28 29  2  0  0  0  0
 28 30  1  0  0  0  0
 31 32  1  0  0  0  0
 32 34  1  0  0  0  0
 32 33  2  0  0  0  0
 34 36  1  0  0  0  0
 35 34  1  0  0  0  0
M  END
>  <minimizedAffinity>
10.277565

$$$$

 OpenBabel09132200163D

 36 39  0  0  0  0  0  0  0  0999 V2000
    3.7630   -2.7500    5.8580 C   0  0  0  0  0  0  0  0  0  0  0  0
    4.7930   -3.6710    6.0180 C   0  0  0  0  0  0  0  0  0  0  0  0
    5.0400   -4.2420    4.7220 C   0  0  0  0  0  0  0  0  0  0  0  0
    5.8980   -5.2560    4.2480 C   0  0  0  0  0  3  0  0  0  0  0  0
    5.8390   -5.6560    2.9080 C   0  0  0  0  0  3  0  0  0  0  0  0
    4.9370   -5.0720    2.0140 C   0  0  0  0  0  0  0  0  0  0  0  0
    4.0930   -4.0450    2.4720 C   0  0  0  0  0  3  0  0  0  0  0  0
    4.1690   -3.6320    3.8150 C   0  0  0  0  0  0  0  0  0  0  0  0
    3.5180   -2.6280    4.4960 N   0  0  0  0  0  0  0  0  0  0  0  0
    1.6550   -2.2160    8.9290 C   0  0  0  0  0  0  0  0  0  0  0  0
    2.3950   -2.8200    7.8990 C   0  0  0  0  0  3  0  0  0  0  0  0
    2.9750   -2.0610    6.8740 C   0  0  0  0  0  0  0  0  0  0  0  0
    2.8090   -0.6780    6.8640 C   0  0  0  0  0  3  0  0  0  0  0  0
    2.0720   -0.0610    7.8760 C   0  0  0  0  0  3  0  0  0  0  0  0
    1.5030   -0.8220    8.9040 C   0  0  0  0  0  0  0  0  0  0  0  0
    0.6490    0.0180   10.1460 Cl  0  0  0  0  0  0  0  0  0  0  0  0
    1.0880   -3.0990   10.0060 C   0  0  0  0  0  2  0  0  0  0  0  0
    2.7910   -4.1420   11.5350 C   0  0  0  0  0  1  0  0  0  0  0  0
    1.9500   -4.3120   10.3020 N   0  0  0  0  0  4  0  0  0  0  0  0
    1.1350   -5.5710   10.3540 C   0  0  0  0  0  1  0  0  0  0  0  0
    2.6010   -4.4150    9.5120 H   0  0  0  0  0  0  0  0  0  0  0  0
    5.4480   -4.0630    7.3260 C   0  0  0  0  0  3  0  0  0  0  0  0
    5.2770   -2.9930    8.4180 C   0  0  0  0  0  2  0  0  0  0  0  0
    5.9720   -3.4010    9.7160 C   0  0  0  0  0  2  0  0  0  0  0  0
    5.5070   -4.7730   10.1950 C   0  0  0  0  0  2  0  0  0  0  0  0
    5.6910   -5.8380    9.1180 C   0  0  0  0  0  2  0  0  0  0  0  0
    4.9950   -5.4480    7.8160 C   0  0  0  0  0  2  0  0  0  0  0  0
    4.8700   -5.5380    0.5710 C   0  0  0  0  0  0  0  0  0  0  0  0
    3.7130   -5.7390    0.0850 O   0  0  0  0  0  1  0  0  0  0  0  0
    5.9750   -5.6950   -0.0370 O   0  0  0  0  0  0  0  0  0  0  0  0
    2.6280   -1.6150    3.9260 C   0  0  0  0  0  2  0  0  0  0  0  0
    1.1390   -1.7410    4.1660 C   0  0  0  0  0  0  0  0  0  0  0  0
    0.4260   -0.7760    3.8660 O   0  0  0  0  0  0  0  0  0  0  0  0
    0.6000   -2.9450    4.5900 N   0  0  0  0  0  0  0  0  0  0  0  0
    1.3410   -4.1820    4.7760 C   0  0  0  0  0  1  0  0  0  0  0  0
   -0.7850   -2.9640    5.0410 C   0  0  0  0  0  1  0  0  0  0  0  0
  1  2  2  0  0  0  0
  1 12  1  0  0  0  0
  2 22  1  0  0  0  0
  3  2  1  0  0  0  0
  4  3  1  0  0  0  0
  5  4  2  0  0  0  0
  6  7  2  0  0  0  0
  6  5  1  0  0  0  0
  7  8  1  0  0  0  0
  8  9  1  0  0  0  0
  8  3  2  0  0  0  0
  9  1  1  0  0  0  0
 10 17  1  0  0  0  0
 11 10  2  0  0  0  0
 12 11  1  0  0  0  0
 13 12  2  0  0  0  0
 13 14  1  0  0  0  0
 14 15  2  0  0  0  0
 15 10  1  0  0  0  0
 15 16  1  0  0  0  0
 17 19  1  0  0  0  0
 19 20  1  0  0  0  0
 19 18  1  0  0  0  0
 21 19  1  0  0  0  0
 22 27  1  0  0  0  0
 22 23  1  0  0  0  0
 23 24  1  0  0  0  0
 24 25  1  0  0  0  0
 26 25  1  0  0  0  0
 27 26  1  0  0  0  0
 28  6  1  0  0  0  0
 29 28  1  0  0  0  0
 30 28  2  0  0  0  0
 31 32  1  0  0  0  0
 31  9  1  0  0  0  0
 32 34  1  0  0  0  0
 33 32  2  0  0  0  0
 34 35  1  0  0  0  0
 34 36  1  0  0  0  0
M  END
>  <minimizedAffinity>
10.8965292

$$$$
