
 OpenBabel09132204463D

 27 29  0  0  0  0  0  0  0  0999 V2000
    3.9640   -0.7210    7.9040 C   0  0  0  0  0  2  0  0  0  0  0  0
    4.9550   -0.9920    8.7770 C   0  0  0  0  0  0  0  0  0  0  0  0
    3.7110   -2.9420    5.0710 C   0  0  0  0  0  0  0  0  0  0  0  0
    2.3680   -2.7810    5.3290 C   0  0  0  0  0  3  0  0  0  0  0  0
    2.2760   -1.9050    6.4360 C   0  0  0  0  0  3  0  0  0  0  0  0
    3.5660   -1.5690    6.8300 C   0  0  0  0  0  0  0  0  0  0  0  0
    4.4300   -2.2180    5.9740 O   0  0  0  0  0  0  0  0  0  0  0  0
    6.7050   -3.3010    5.3430 C   0  0  0  0  0  1  0  0  0  0  0  0
    5.9010   -3.8570    4.1990 C   0  0  0  0  0  0  0  0  0  0  0  0
    6.5880   -4.5630    3.1920 C   0  0  0  0  0  3  0  0  0  0  0  0
    5.9050   -5.1320    2.1180 C   0  0  0  0  0  3  0  0  0  0  0  0
    4.5250   -5.0010    2.0310 C   0  0  0  0  0  3  0  0  0  0  0  0
    3.8330   -4.2900    3.0120 C   0  0  0  0  0  3  0  0  0  0  0  0
    4.5020   -3.6970    4.1000 C   0  0  0  0  0  0  0  0  0  0  0  0
    5.7340   -2.1380    8.6840 N   0  0  0  0  0  4  0  0  0  0  0  0
    5.4670   -3.4550    8.9740 C   0  0  0  0  0  0  0  0  0  0  0  0
    6.3920   -4.2700    9.0400 O   0  0  0  0  0  0  0  0  0  0  0  0
    6.7020   -1.9840    8.4160 H   0  0  0  0  0  0  0  0  0  0  0  0
    4.0870   -3.9690    9.1060 C   0  0  0  0  0  0  0  0  0  0  0  0
    3.5990   -4.8390    8.1240 C   0  0  0  0  0  3  0  0  0  0  0  0
    2.2750   -5.2780    8.1760 C   0  0  0  0  0  3  0  0  0  0  0  0
    1.4340   -4.8360    9.1970 C   0  0  0  0  0  3  0  0  0  0  0  0
    1.9120   -3.9490   10.1630 C   0  0  0  0  0  3  0  0  0  0  0  0
    3.2340   -3.5020   10.1110 C   0  0  0  0  0  3  0  0  0  0  0  0
    5.1570    0.1610    9.8060 C   0  0  0  0  0  0  0  0  0  0  0  0
    4.0950    0.7520   10.1620 O   0  0  0  0  0  1  0  0  0  0  0  0
    6.3600    0.3980   10.1130 O   0  0  0  0  0  0  0  0  0  0  0  0
  1  2  1  0  0  0  0
  2 25  1  0  0  0  0
  3  4  2  0  0  0  0
  3  7  1  0  0  0  0
  4  5  1  0  0  0  0
  5  6  2  0  0  0  0
  6  1  1  0  0  0  0
  7  6  1  0  0  0  0
  9  8  1  0  0  0  0
 10  9  2  0  0  0  0
 11 10  1  0  0  0  0
 12 11  2  0  0  0  0
 12 13  1  0  0  0  0
 13 14  2  0  0  0  0
 14  9  1  0  0  0  0
 14  3  1  0  0  0  0
 15  2  2  0  0  0  0
 15 16  1  0  0  0  0
 16 17  2  0  0  0  0
 16 19  1  0  0  0  0
 18 15  1  0  0  0  0
 19 24  1  0  0  0  0
 20 21  1  0  0  0  0
 20 19  2  0  0  0  0
 21 22  2  0  0  0  0
 22 23  1  0  0  0  0
 24 23  2  0  0  0  0
 25 27  2  0  0  0  0
 25 26  1  0  0  0  0
M  END
>  <minimizedAffinity>
-4.72364283

$$$$
