
 OpenBabel09122222393D

 23 26  0  0  0  0  0  0  0  0999 V2000
    7.4360   -5.4150    1.0900 C   0  0  0  0  0  0  0  0  0  0  0  0
    8.2270   -5.2810   -0.0590 C   0  0  0  0  0  3  0  0  0  0  0  0
    9.0290   -4.1480   -0.2730 C   0  0  0  0  0  3  0  0  0  0  0  0
    9.0500   -3.1080    0.6820 C   0  0  0  0  0  0  0  0  0  0  0  0
    9.7430   -1.8400    0.7960 C   0  0  0  0  0  0  0  0  0  0  0  0
    9.2700   -1.2410    1.9620 C   0  0  0  0  0  0  0  0  0  0  0  0
    8.4310   -2.1400    2.5760 N   0  0  0  0  0  0  0  0  0  0  0  0
    8.2540   -3.2600    1.8110 C   0  0  0  0  0  0  0  0  0  0  0  0
    7.4500   -4.3830    2.0440 C   0  0  0  0  0  3  0  0  0  0  0  0
    7.9460   -1.9840    3.4450 H   0  0  0  0  0  0  0  0  0  0  0  0
   10.7660   -1.3250   -0.1790 C   0  0  0  0  0  3  0  0  0  0  0  0
   11.4260   -2.4050   -1.0500 C   0  0  0  0  0  2  0  0  0  0  0  0
   11.8760   -1.6400   -2.2840 C   0  0  0  0  0  2  0  0  0  0  0  0
   10.7160   -0.6940   -2.5470 C   0  0  0  0  0  2  0  0  0  0  0  0
   10.2290   -0.2700   -1.1620 C   0  0  0  0  0  2  0  0  0  0  0  0
    9.5330    0.1040    2.5550 C   0  0  0  0  0  0  0  0  0  0  0  0
    9.4780    1.3500    1.8700 C   0  0  0  0  0  3  0  0  0  0  0  0
    9.8090    2.3170    2.7900 C   0  0  0  0  0  3  0  0  0  0  0  0
   10.0820    1.7520    3.9920 O   0  0  0  0  0  0  0  0  0  0  0  0
    9.9210    0.4090    3.8390 C   0  0  0  0  0  3  0  0  0  0  0  0
    6.2980   -7.3490    0.2810 O   0  0  0  0  0  0  0  0  0  0  0  0
    6.5760   -6.6480    1.3050 C   0  0  0  0  0  0  0  0  0  0  0  0
    6.1990   -6.8900    2.4950 O   0  0  0  0  0  1  0  0  0  0  0  0
  1 22  1  0  0  0  0
  1  9  1  0  0  0  0
  2  1  2  0  0  0  0
  3  2  1  0  0  0  0
  3  4  2  0  0  0  0
  4  5  1  0  0  0  0
  4  8  1  0  0  0  0
  5  6  2  0  0  0  0
  6 16  1  0  0  0  0
  6  7  1  0  0  0  0
  7 10  1  0  0  0  0
  8  9  2  0  0  0  0
  8  7  1  0  0  0  0
 11  5  1  0  0  0  0
 12 11  1  0  0  0  0
 13 12  1  0  0  0  0
 14 13  1  0  0  0  0
 14 15  1  0  0  0  0
 15 11  1  0  0  0  0
 16 20  2  0  0  0  0
 17 16  1  0  0  0  0
 17 18  2  0  0  0  0
 18 19  1  0  0  0  0
 20 19  1  0  0  0  0
 21 22  2  0  0  0  0
 22 23  1  0  0  0  0
M  END
>  <minimizedAffinity>
-6.89887428

$$$$
