
 OpenBabel09122218363D

 23 26  0  0  0  0  0  0  0  0999 V2000
    6.2800   -6.0630    0.3670 C   0  0  0  0  0  0  0  0  0  0  0  0
    6.4600   -5.4860    1.6320 C   0  0  0  0  0  3  0  0  0  0  0  0
    7.4800   -4.5520    1.8760 C   0  0  0  0  0  3  0  0  0  0  0  0
    8.3560   -4.1740    0.8350 C   0  0  0  0  0  0  0  0  0  0  0  0
    9.4770   -3.2620    0.7240 C   0  0  0  0  0  0  0  0  0  0  0  0
    9.9650   -3.4010   -0.5740 C   0  0  0  0  0  0  0  0  0  0  0  0
    9.1220   -4.2560   -1.2420 N   0  0  0  0  0  0  0  0  0  0  0  0
    8.1630   -4.7630   -0.4080 C   0  0  0  0  0  0  0  0  0  0  0  0
    7.1500   -5.6940   -0.6730 C   0  0  0  0  0  3  0  0  0  0  0  0
    9.2200   -4.5380   -2.2040 H   0  0  0  0  0  0  0  0  0  0  0  0
    9.9700   -2.3620    1.8240 C   0  0  0  0  0  3  0  0  0  0  0  0
    9.0710   -1.1510    2.1150 C   0  0  0  0  0  2  0  0  0  0  0  0
    9.3950   -0.8080    3.5600 C   0  0  0  0  0  2  0  0  0  0  0  0
    9.5040   -2.1710    4.2230 C   0  0  0  0  0  2  0  0  0  0  0  0
   10.1670   -3.0670    3.1780 C   0  0  0  0  0  2  0  0  0  0  0  0
   11.1560   -2.8030   -1.2480 C   0  0  0  0  0  0  0  0  0  0  0  0
   11.3300   -1.4320   -1.5850 C   0  0  0  0  0  3  0  0  0  0  0  0
   12.5530   -1.3340   -2.2070 C   0  0  0  0  0  3  0  0  0  0  0  0
   13.1380   -2.5550   -2.2930 O   0  0  0  0  0  0  0  0  0  0  0  0
   12.2800   -3.4420   -1.7170 C   0  0  0  0  0  3  0  0  0  0  0  0
    5.2160   -7.7290   -0.9670 O   0  0  0  0  0  0  0  0  0  0  0  0
    5.1710   -7.0690    0.1200 C   0  0  0  0  0  0  0  0  0  0  0  0
    4.2780   -7.1800    1.0190 O   0  0  0  0  0  1  0  0  0  0  0  0
  1  2  1  0  0  0  0
  2  3  2  0  0  0  0
  4  3  1  0  0  0  0
  5  4  1  0  0  0  0
  5 11  1  0  0  0  0
  6  5  2  0  0  0  0
  7  6  1  0  0  0  0
  7  8  1  0  0  0  0
  8  4  2  0  0  0  0
  9  8  1  0  0  0  0
  9  1  2  0  0  0  0
 10  7  1  0  0  0  0
 11 12  1  0  0  0  0
 11 15  1  0  0  0  0
 12 13  1  0  0  0  0
 13 14  1  0  0  0  0
 15 14  1  0  0  0  0
 16  6  1  0  0  0  0
 17 16  1  0  0  0  0
 18 17  2  0  0  0  0
 19 18  1  0  0  0  0
 19 20  1  0  0  0  0
 20 16  2  0  0  0  0
 21 22  2  0  0  0  0
 22  1  1  0  0  0  0
 22 23  1  0  0  0  0
M  END
>  <minimizedAffinity>
-7.67061424

$$$$

 OpenBabel09122218363D

 23 26  0  0  0  0  0  0  0  0999 V2000
    6.4490   -5.9260   -0.0480 C   0  0  0  0  0  0  0  0  0  0  0  0
    7.3290   -5.5030   -1.0530 C   0  0  0  0  0  3  0  0  0  0  0  0
    8.3710   -4.5990   -0.7860 C   0  0  0  0  0  3  0  0  0  0  0  0
    8.5500   -4.0940    0.5200 C   0  0  0  0  0  0  0  0  0  0  0  0
    9.4920   -3.1850    1.1430 C   0  0  0  0  0  0  0  0  0  0  0  0
    9.0790   -3.0440    2.4670 C   0  0  0  0  0  0  0  0  0  0  0  0
    8.0240   -3.9030    2.6640 N   0  0  0  0  0  0  0  0  0  0  0  0
    7.6630   -4.5230    1.4990 C   0  0  0  0  0  0  0  0  0  0  0  0
    6.6200   -5.4260    1.2540 C   0  0  0  0  0  3  0  0  0  0  0  0
    7.5250   -4.0230    3.5300 H   0  0  0  0  0  0  0  0  0  0  0  0
   10.6680   -2.5530    0.4510 C   0  0  0  0  0  3  0  0  0  0  0  0
   11.4880   -3.5100   -0.4270 C   0  0  0  0  0  2  0  0  0  0  0  0
   12.1450   -2.5860   -1.4410 C   0  0  0  0  0  2  0  0  0  0  0  0
   11.0400   -1.5980   -1.7750 C   0  0  0  0  0  2  0  0  0  0  0  0
   10.3050   -1.3640   -0.4560 C   0  0  0  0  0  2  0  0  0  0  0  0
    9.5850   -2.1730    3.5700 C   0  0  0  0  0  0  0  0  0  0  0  0
   10.1490   -2.6150    4.7980 C   0  0  0  0  0  3  0  0  0  0  0  0
   10.4550   -1.4850    5.5180 C   0  0  0  0  0  3  0  0  0  0  0  0
   10.1010   -0.3730    4.8260 O   0  0  0  0  0  0  0  0  0  0  0  0
    9.5660   -0.8000    3.6480 C   0  0  0  0  0  3  0  0  0  0  0  0
    5.6110   -7.8950   -1.1020 O   0  0  0  0  0  0  0  0  0  0  0  0
    5.3300   -6.9060   -0.3540 C   0  0  0  0  0  0  0  0  0  0  0  0
    4.1930   -6.6650    0.1620 O   0  0  0  0  0  1  0  0  0  0  0  0
  1  9  1  0  0  0  0
  2  3  1  0  0  0  0
  2  1  2  0  0  0  0
  3  4  2  0  0  0  0
  4  5  1  0  0  0  0
  4  8  1  0  0  0  0
  5  6  2  0  0  0  0
  6  7  1  0  0  0  0
  6 16  1  0  0  0  0
  7 10  1  0  0  0  0
  8  7  1  0  0  0  0
  9  8  2  0  0  0  0
 11  5  1  0  0  0  0
 12 11  1  0  0  0  0
 13 12  1  0  0  0  0
 14 13  1  0  0  0  0
 14 15  1  0  0  0  0
 15 11  1  0  0  0  0
 16 20  2  0  0  0  0
 16 17  1  0  0  0  0
 17 18  2  0  0  0  0
 19 18  1  0  0  0  0
 20 19  1  0  0  0  0
 21 22  2  0  0  0  0
 22  1  1  0  0  0  0
 22 23  1  0  0  0  0
M  END
>  <minimizedAffinity>
-7.44809341

$$$$

 OpenBabel09122218363D

 23 26  0  0  0  0  0  0  0  0999 V2000
    7.4360   -5.4150    1.0900 C   0  0  0  0  0  0  0  0  0  0  0  0
    8.2270   -5.2810   -0.0590 C   0  0  0  0  0  3  0  0  0  0  0  0
    9.0290   -4.1480   -0.2730 C   0  0  0  0  0  3  0  0  0  0  0  0
    9.0500   -3.1080    0.6820 C   0  0  0  0  0  0  0  0  0  0  0  0
    9.7430   -1.8400    0.7960 C   0  0  0  0  0  0  0  0  0  0  0  0
    9.2700   -1.2410    1.9620 C   0  0  0  0  0  0  0  0  0  0  0  0
    8.4310   -2.1400    2.5760 N   0  0  0  0  0  0  0  0  0  0  0  0
    8.2540   -3.2600    1.8110 C   0  0  0  0  0  0  0  0  0  0  0  0
    7.4500   -4.3830    2.0440 C   0  0  0  0  0  3  0  0  0  0  0  0
    7.9460   -1.9840    3.4450 H   0  0  0  0  0  0  0  0  0  0  0  0
   10.7660   -1.3250   -0.1790 C   0  0  0  0  0  3  0  0  0  0  0  0
   11.4260   -2.4050   -1.0500 C   0  0  0  0  0  2  0  0  0  0  0  0
   11.8760   -1.6400   -2.2840 C   0  0  0  0  0  2  0  0  0  0  0  0
   10.7160   -0.6940   -2.5470 C   0  0  0  0  0  2  0  0  0  0  0  0
   10.2290   -0.2700   -1.1620 C   0  0  0  0  0  2  0  0  0  0  0  0
    9.5330    0.1040    2.5550 C   0  0  0  0  0  0  0  0  0  0  0  0
    9.4780    1.3500    1.8700 C   0  0  0  0  0  3  0  0  0  0  0  0
    9.8090    2.3170    2.7900 C   0  0  0  0  0  3  0  0  0  0  0  0
   10.0820    1.7520    3.9920 O   0  0  0  0  0  0  0  0  0  0  0  0
    9.9210    0.4090    3.8390 C   0  0  0  0  0  3  0  0  0  0  0  0
    6.2980   -7.3490    0.2810 O   0  0  0  0  0  0  0  0  0  0  0  0
    6.5760   -6.6480    1.3050 C   0  0  0  0  0  0  0  0  0  0  0  0
    6.1990   -6.8900    2.4950 O   0  0  0  0  0  1  0  0  0  0  0  0
  1 22  1  0  0  0  0
  1  9  1  0  0  0  0
  2  1  2  0  0  0  0
  3  2  1  0  0  0  0
  3  4  2  0  0  0  0
  4  5  1  0  0  0  0
  4  8  1  0  0  0  0
  5  6  2  0  0  0  0
  6 16  1  0  0  0  0
  6  7  1  0  0  0  0
  7 10  1  0  0  0  0
  8  9  2  0  0  0  0
  8  7  1  0  0  0  0
 11  5  1  0  0  0  0
 12 11  1  0  0  0  0
 13 12  1  0  0  0  0
 14 13  1  0  0  0  0
 14 15  1  0  0  0  0
 15 11  1  0  0  0  0
 16 20  2  0  0  0  0
 17 16  1  0  0  0  0
 17 18  2  0  0  0  0
 18 19  1  0  0  0  0
 20 19  1  0  0  0  0
 21 22  2  0  0  0  0
 22 23  1  0  0  0  0
M  END
>  <minimizedAffinity>
-6.89887428

$$$$

 OpenBabel09122218363D

 23 26  0  0  0  0  0  0  0  0999 V2000
    9.8130   -3.5370    0.6020 C   0  0  0  0  0  0  0  0  0  0  0  0
    9.2210   -4.6010   -0.0910 C   0  0  0  0  0  3  0  0  0  0  0  0
    7.9960   -5.1540    0.3160 C   0  0  0  0  0  3  0  0  0  0  0  0
    7.3310   -4.6380    1.4500 C   0  0  0  0  0  0  0  0  0  0  0  0
    6.0880   -4.9420    2.1300 C   0  0  0  0  0  0  0  0  0  0  0  0
    6.0390   -4.1040    3.2430 C   0  0  0  0  0  0  0  0  0  0  0  0
    7.1250   -3.2660    3.1760 N   0  0  0  0  0  0  0  0  0  0  0  0
    7.9390   -3.5870    2.1240 C   0  0  0  0  0  0  0  0  0  0  0  0
    9.1590   -3.0200    1.7330 C   0  0  0  0  0  3  0  0  0  0  0  0
    7.3470   -2.5460    3.8450 H   0  0  0  0  0  0  0  0  0  0  0  0
    5.0830   -5.9660    1.6770 C   0  0  0  0  0  3  0  0  0  0  0  0
    4.6010   -5.7960    0.2290 C   0  0  0  0  0  2  0  0  0  0  0  0
    4.1560   -7.1960   -0.1630 C   0  0  0  0  0  2  0  0  0  0  0  0
    5.2250   -8.0840    0.4510 C   0  0  0  0  0  2  0  0  0  0  0  0
    5.5710   -7.4210    1.7840 C   0  0  0  0  0  2  0  0  0  0  0  0
    5.0620   -4.0190    4.3700 C   0  0  0  0  0  0  0  0  0  0  0  0
    3.6620   -3.7930    4.2530 C   0  0  0  0  0  3  0  0  0  0  0  0
    3.1610   -3.7680    5.5330 C   0  0  0  0  0  3  0  0  0  0  0  0
    4.1590   -3.9450    6.4340 O   0  0  0  0  0  0  0  0  0  0  0  0
    5.3100   -4.0880    5.7210 C   0  0  0  0  0  3  0  0  0  0  0  0
   11.0930   -2.0010   -0.7000 O   0  0  0  0  0  0  0  0  0  0  0  0
   11.1380   -2.9500    0.1470 C   0  0  0  0  0  0  0  0  0  0  0  0
   12.1950   -3.4500    0.6460 O   0  0  0  0  0  1  0  0  0  0  0  0
  1  9  1  0  0  0  0
  2  3  1  0  0  0  0
  2  1  2  0  0  0  0
  3  4  2  0  0  0  0
  4  8  1  0  0  0  0
  4  5  1  0  0  0  0
  5  6  2  0  0  0  0
  6 16  1  0  0  0  0
  7  6  1  0  0  0  0
  7 10  1  0  0  0  0
  8  7  1  0  0  0  0
  9  8  2  0  0  0  0
 11 15  1  0  0  0  0
 11  5  1  0  0  0  0
 12 11  1  0  0  0  0
 13 12  1  0  0  0  0
 13 14  1  0  0  0  0
 14 15  1  0  0  0  0
 16 20  2  0  0  0  0
 17 16  1  0  0  0  0
 17 18  2  0  0  0  0
 18 19  1  0  0  0  0
 20 19  1  0  0  0  0
 21 22  2  0  0  0  0
 22  1  1  0  0  0  0
 22 23  1  0  0  0  0
M  END
>  <minimizedAffinity>
-6.85231256

$$$$

 OpenBabel09122218363D

 23 26  0  0  0  0  0  0  0  0999 V2000
    5.2280   -6.4630    0.9140 C   0  0  0  0  0  0  0  0  0  0  0  0
    5.1840   -7.4750    1.8820 C   0  0  0  0  0  3  0  0  0  0  0  0
    4.7150   -7.2300    3.1830 C   0  0  0  0  0  3  0  0  0  0  0  0
    4.2740   -5.9380    3.5420 C   0  0  0  0  0  0  0  0  0  0  0  0
    3.7340   -5.3420    4.7480 C   0  0  0  0  0  0  0  0  0  0  0  0
    3.5620   -3.9870    4.4690 C   0  0  0  0  0  0  0  0  0  0  0  0
    3.8680   -3.7970    3.1430 N   0  0  0  0  0  0  0  0  0  0  0  0
    4.3320   -4.9490    2.5690 C   0  0  0  0  0  0  0  0  0  0  0  0
    4.7940   -5.1730    1.2650 C   0  0  0  0  0  3  0  0  0  0  0  0
    3.8270   -2.9160    2.6570 H   0  0  0  0  0  0  0  0  0  0  0  0
    3.4330   -6.0870    6.0190 C   0  0  0  0  0  3  0  0  0  0  0  0
    4.2410   -5.6270    7.2420 C   0  0  0  0  0  2  0  0  0  0  0  0
    3.3650   -6.0280    8.4180 C   0  0  0  0  0  2  0  0  0  0  0  0
    1.9640   -5.6830    7.9390 C   0  0  0  0  0  2  0  0  0  0  0  0
    1.9570   -6.0310    6.4520 C   0  0  0  0  0  2  0  0  0  0  0  0
    3.1360   -2.8490    5.3370 C   0  0  0  0  0  0  0  0  0  0  0  0
    3.8950   -2.2620    6.3870 C   0  0  0  0  0  3  0  0  0  0  0  0
    3.1140   -1.2680    6.9280 C   0  0  0  0  0  3  0  0  0  0  0  0
    1.9150   -1.2130    6.2950 O   0  0  0  0  0  0  0  0  0  0  0  0
    1.9330   -2.1800    5.3370 C   0  0  0  0  0  3  0  0  0  0  0  0
    5.4300   -7.8690   -1.0020 O   0  0  0  0  0  1  0  0  0  0  0  0
    5.7360   -6.7470   -0.4880 C   0  0  0  0  0  0  0  0  0  0  0  0
    6.4300   -5.8390   -1.0480 O   0  0  0  0  0  0  0  0  0  0  0  0
  1  9  2  0  0  0  0
  1  2  1  0  0  0  0
  2  3  2  0  0  0  0
  3  4  1  0  0  0  0
  4  5  1  0  0  0  0
  5 11  1  0  0  0  0
  6  5  2  0  0  0  0
  6 16  1  0  0  0  0
  7  6  1  0  0  0  0
  8  7  1  0  0  0  0
  8  4  2  0  0  0  0
  9  8  1  0  0  0  0
 10  7  1  0  0  0  0
 11 15  1  0  0  0  0
 11 12  1  0  0  0  0
 12 13  1  0  0  0  0
 14 13  1  0  0  0  0
 15 14  1  0  0  0  0
 16 20  2  0  0  0  0
 16 17  1  0  0  0  0
 17 18  2  0  0  0  0
 19 18  1  0  0  0  0
 20 19  1  0  0  0  0
 21 22  1  0  0  0  0
 22  1  1  0  0  0  0
 23 22  2  0  0  0  0
M  END
>  <minimizedAffinity>
-6.80285358

$$$$

 OpenBabel09122218363D

 23 26  0  0  0  0  0  0  0  0999 V2000
    9.1360   -3.9470    0.5070 C   0  0  0  0  0  0  0  0  0  0  0  0
    8.6690   -3.1630    1.5700 C   0  0  0  0  0  3  0  0  0  0  0  0
    7.5440   -3.5380    2.3230 C   0  0  0  0  0  3  0  0  0  0  0  0
    6.8550   -4.7320    2.0160 C   0  0  0  0  0  0  0  0  0  0  0  0
    5.7020   -5.4150    2.5660 C   0  0  0  0  0  0  0  0  0  0  0  0
    5.4860   -6.5280    1.7560 C   0  0  0  0  0  0  0  0  0  0  0  0
    6.5120   -6.5790    0.8430 N   0  0  0  0  0  0  0  0  0  0  0  0
    7.3330   -5.4910    0.9550 C   0  0  0  0  0  0  0  0  0  0  0  0
    8.4540   -5.1350    0.1930 C   0  0  0  0  0  3  0  0  0  0  0  0
    6.6240   -7.2830    0.1310 H   0  0  0  0  0  0  0  0  0  0  0  0
    4.9320   -4.9700    3.7800 C   0  0  0  0  0  3  0  0  0  0  0  0
    5.6820   -3.9880    4.6920 C   0  0  0  0  0  2  0  0  0  0  0  0
    4.5660   -3.2450    5.4070 C   0  0  0  0  0  2  0  0  0  0  0  0
    3.5380   -3.0250    4.3090 C   0  0  0  0  0  2  0  0  0  0  0  0
    3.5860   -4.2970    3.4630 C   0  0  0  0  0  2  0  0  0  0  0  0
    4.3990   -7.5530    1.7580 C   0  0  0  0  0  0  0  0  0  0  0  0
    3.8840   -8.2290    2.8990 C   0  0  0  0  0  3  0  0  0  0  0  0
    2.9180   -9.0930    2.4400 C   0  0  0  0  0  3  0  0  0  0  0  0
    2.8150   -9.0110    1.0900 O   0  0  0  0  0  0  0  0  0  0  0  0
    3.7220   -8.0810    0.6840 C   0  0  0  0  0  3  0  0  0  0  0  0
   11.3940   -4.2540   -0.1980 O   0  0  0  0  0  1  0  0  0  0  0  0
   10.3550   -3.5270   -0.2950 C   0  0  0  0  0  0  0  0  0  0  0  0
   10.2460   -2.4790   -1.0070 O   0  0  0  0  0  0  0  0  0  0  0  0
  1  2  1  0  0  0  0
  2  3  2  0  0  0  0
  4  3  1  0  0  0  0
  4  5  1  0  0  0  0
  5 11  1  0  0  0  0
  6 16  1  0  0  0  0
  6  5  2  0  0  0  0
  7  8  1  0  0  0  0
  7  6  1  0  0  0  0
  8  4  2  0  0  0  0
  9  1  2  0  0  0  0
  9  8  1  0  0  0  0
 10  7  1  0  0  0  0
 11 12  1  0  0  0  0
 12 13  1  0  0  0  0
 14 13  1  0  0  0  0
 15 11  1  0  0  0  0
 15 14  1  0  0  0  0
 16 17  1  0  0  0  0
 18 17  2  0  0  0  0
 19 18  1  0  0  0  0
 20 19  1  0  0  0  0
 20 16  2  0  0  0  0
 22 21  1  0  0  0  0
 22  1  1  0  0  0  0
 23 22  2  0  0  0  0
M  END
>  <minimizedAffinity>
-6.71405125

$$$$

 OpenBabel09122218363D

 23 26  0  0  0  0  0  0  0  0999 V2000
    4.9920   -6.3250    1.0470 C   0  0  0  0  0  0  0  0  0  0  0  0
    4.5770   -7.3620    1.8930 C   0  0  0  0  0  3  0  0  0  0  0  0
    3.9690   -7.1020    3.1320 C   0  0  0  0  0  3  0  0  0  0  0  0
    3.7620   -5.7700    3.5520 C   0  0  0  0  0  0  0  0  0  0  0  0
    3.1750   -5.1470    4.7220 C   0  0  0  0  0  0  0  0  0  0  0  0
    3.3440   -3.7740    4.5570 C   0  0  0  0  0  0  0  0  0  0  0  0
    3.8920   -3.5710    3.3140 N   0  0  0  0  0  0  0  0  0  0  0  0
    4.1860   -4.7580    2.7000 C   0  0  0  0  0  0  0  0  0  0  0  0
    4.7920   -4.9960    1.4590 C   0  0  0  0  0  3  0  0  0  0  0  0
    4.1190   -2.6740    2.9170 H   0  0  0  0  0  0  0  0  0  0  0  0
    2.5210   -5.8870    5.8570 C   0  0  0  0  0  3  0  0  0  0  0  0
    1.2710   -6.6900    5.4650 C   0  0  0  0  0  2  0  0  0  0  0  0
    1.1970   -7.7720    6.5310 C   0  0  0  0  0  2  0  0  0  0  0  0
    2.6500   -8.1810    6.7110 C   0  0  0  0  0  2  0  0  0  0  0  0
    3.4450   -6.8830    6.5800 C   0  0  0  0  0  2  0  0  0  0  0  0
    3.0360   -2.6280    5.4650 C   0  0  0  0  0  0  0  0  0  0  0  0
    3.8500   -2.1600    6.5330 C   0  0  0  0  0  3  0  0  0  0  0  0
    3.1760   -1.1090    7.1090 C   0  0  0  0  0  3  0  0  0  0  0  0
    1.9910   -0.9070    6.4790 O   0  0  0  0  0  0  0  0  0  0  0  0
    1.9100   -1.8380    5.4890 C   0  0  0  0  0  3  0  0  0  0  0  0
    6.5170   -5.7960   -0.7090 O   0  0  0  0  0  1  0  0  0  0  0  0
    5.6460   -6.6230   -0.2900 C   0  0  0  0  0  0  0  0  0  0  0  0
    5.2760   -7.6800   -0.8930 O   0  0  0  0  0  0  0  0  0  0  0  0
  1  9  2  0  0  0  0
  1  2  1  0  0  0  0
  2  3  2  0  0  0  0
  3  4  1  0  0  0  0
  4  5  1  0  0  0  0
  5 11  1  0  0  0  0
  6  5  2  0  0  0  0
  6 16  1  0  0  0  0
  7  6  1  0  0  0  0
  8  7  1  0  0  0  0
  8  4  2  0  0  0  0
  9  8  1  0  0  0  0
 10  7  1  0  0  0  0
 11 15  1  0  0  0  0
 12 11  1  0  0  0  0
 12 13  1  0  0  0  0
 13 14  1  0  0  0  0
 15 14  1  0  0  0  0
 16 20  2  0  0  0  0
 16 17  1  0  0  0  0
 17 18  2  0  0  0  0
 19 18  1  0  0  0  0
 20 19  1  0  0  0  0
 21 22  1  0  0  0  0
 22  1  1  0  0  0  0
 23 22  2  0  0  0  0
M  END
>  <minimizedAffinity>
-6.66305017

$$$$

 OpenBabel09122218363D

 23 26  0  0  0  0  0  0  0  0999 V2000
    3.6780   -3.8050    5.3370 C   0  0  0  0  0  0  0  0  0  0  0  0
    3.1070   -4.8660    4.6220 C   0  0  0  0  0  3  0  0  0  0  0  0
    3.7540   -5.4430    3.5170 C   0  0  0  0  0  3  0  0  0  0  0  0
    5.0120   -4.9540    3.1020 C   0  0  0  0  0  0  0  0  0  0  0  0
    5.9450   -5.3010    2.0480 C   0  0  0  0  0  0  0  0  0  0  0  0
    6.9860   -4.3780    2.1310 C   0  0  0  0  0  0  0  0  0  0  0  0
    6.7560   -3.5950    3.2370 N   0  0  0  0  0  0  0  0  0  0  0  0
    5.5570   -3.8980    3.8210 C   0  0  0  0  0  0  0  0  0  0  0  0
    4.9290   -3.3110    4.9270 C   0  0  0  0  0  3  0  0  0  0  0  0
    7.3490   -2.8450    3.5530 H   0  0  0  0  0  0  0  0  0  0  0  0
    5.7750   -6.4460    1.0880 C   0  0  0  0  0  3  0  0  0  0  0  0
    5.3050   -7.7600    1.7300 C   0  0  0  0  0  2  0  0  0  0  0  0
    4.6310   -8.4940    0.5820 C   0  0  0  0  0  2  0  0  0  0  0  0
    3.8750   -7.3900   -0.1390 C   0  0  0  0  0  2  0  0  0  0  0  0
    4.7890   -6.1680   -0.0600 C   0  0  0  0  0  2  0  0  0  0  0  0
    8.1820   -4.1620    1.2640 C   0  0  0  0  0  0  0  0  0  0  0  0
    9.1510   -3.1310    1.4100 C   0  0  0  0  0  3  0  0  0  0  0  0
   10.0580   -3.2960    0.3900 C   0  0  0  0  0  3  0  0  0  0  0  0
    9.7040   -4.3490   -0.3890 O   0  0  0  0  0  0  0  0  0  0  0  0
    8.5610   -4.8630    0.1430 C   0  0  0  0  0  3  0  0  0  0  0  0
    2.4020   -2.0660    6.3570 O   0  0  0  0  0  0  0  0  0  0  0  0
    2.9650   -3.1940    6.5300 C   0  0  0  0  0  0  0  0  0  0  0  0
    2.9810   -3.8560    7.6160 O   0  0  0  0  0  1  0  0  0  0  0  0
  1 22  1  0  0  0  0
  2  1  2  0  0  0  0
  3  2  1  0  0  0  0
  4  3  2  0  0  0  0
  4  8  1  0  0  0  0
  5  6  2  0  0  0  0
  5  4  1  0  0  0  0
  6  7  1  0  0  0  0
  7 10  1  0  0  0  0
  7  8  1  0  0  0  0
  8  9  2  0  0  0  0
  9  1  1  0  0  0  0
 11 12  1  0  0  0  0
 11  5  1  0  0  0  0
 13 12  1  0  0  0  0
 14 15  1  0  0  0  0
 14 13  1  0  0  0  0
 15 11  1  0  0  0  0
 16 17  1  0  0  0  0
 16  6  1  0  0  0  0
 18 17  2  0  0  0  0
 19 20  1  0  0  0  0
 19 18  1  0  0  0  0
 20 16  2  0  0  0  0
 21 22  2  0  0  0  0
 22 23  1  0  0  0  0
M  END
>  <minimizedAffinity>
-6.31866169

$$$$

 OpenBabel09122218363D

 23 26  0  0  0  0  0  0  0  0999 V2000
    2.8520   -2.7300    5.7710 C   0  0  0  0  0  0  0  0  0  0  0  0
    2.6550   -3.9770    6.3780 C   0  0  0  0  0  3  0  0  0  0  0  0
    3.0180   -5.1730    5.7370 C   0  0  0  0  0  3  0  0  0  0  0  0
    3.5960   -5.1360    4.4490 C   0  0  0  0  0  0  0  0  0  0  0  0
    4.0880   -6.1360    3.5210 C   0  0  0  0  0  0  0  0  0  0  0  0
    4.4750   -5.4450    2.3740 C   0  0  0  0  0  0  0  0  0  0  0  0
    4.3350   -4.1030    2.6340 N   0  0  0  0  0  0  0  0  0  0  0  0
    3.7760   -3.8890    3.8640 C   0  0  0  0  0  0  0  0  0  0  0  0
    3.4240   -2.6850    4.4880 C   0  0  0  0  0  3  0  0  0  0  0  0
    4.5480   -3.3600    1.9890 H   0  0  0  0  0  0  0  0  0  0  0  0
    4.1510   -7.6130    3.7980 C   0  0  0  0  0  3  0  0  0  0  0  0
    2.8850   -8.3930    3.4130 C   0  0  0  0  0  2  0  0  0  0  0  0
    3.3960   -9.8070    3.1850 C   0  0  0  0  0  2  0  0  0  0  0  0
    4.7120   -9.5870    2.4570 C   0  0  0  0  0  2  0  0  0  0  0  0
    5.3150   -8.3390    3.0990 C   0  0  0  0  0  2  0  0  0  0  0  0
    4.9650   -5.9310    1.0500 C   0  0  0  0  0  0  0  0  0  0  0  0
    6.2530   -5.6970    0.4930 C   0  0  0  0  0  3  0  0  0  0  0  0
    6.2630   -6.3040   -0.7400 C   0  0  0  0  0  3  0  0  0  0  0  0
    5.0620   -6.8820   -0.9920 O   0  0  0  0  0  0  0  0  0  0  0  0
    4.2780   -6.6440    0.0950 C   0  0  0  0  0  3  0  0  0  0  0  0
    1.5220   -0.7580    5.9570 O   0  0  0  0  0  0  0  0  0  0  0  0
    2.4550   -1.4470    6.4790 C   0  0  0  0  0  0  0  0  0  0  0  0
    3.0850   -1.1550    7.5450 O   0  0  0  0  0  1  0  0  0  0  0  0
  1  2  1  0  0  0  0
  1 22  1  0  0  0  0
  3  2  2  0  0  0  0
  4  3  1  0  0  0  0
  5 11  1  0  0  0  0
  5  4  1  0  0  0  0
  6  7  1  0  0  0  0
  6  5  2  0  0  0  0
  7  8  1  0  0  0  0
  8  4  2  0  0  0  0
  8  9  1  0  0  0  0
  9  1  2  0  0  0  0
 10  7  1  0  0  0  0
 12 11  1  0  0  0  0
 13 12  1  0  0  0  0
 14 15  1  0  0  0  0
 14 13  1  0  0  0  0
 15 11  1  0  0  0  0
 16  6  1  0  0  0  0
 17 16  1  0  0  0  0
 18 17  2  0  0  0  0
 19 18  1  0  0  0  0
 19 20  1  0  0  0  0
 20 16  2  0  0  0  0
 21 22  2  0  0  0  0
 22 23  1  0  0  0  0
M  END
>  <minimizedAffinity>
-6.31324863

$$$$

 OpenBabel09122218363D

 23 26  0  0  0  0  0  0  0  0999 V2000
   10.3540    2.9930    2.5310 C   0  0  0  0  0  0  0  0  0  0  0  0
   10.8880    2.9990    1.2360 C   0  0  0  0  0  3  0  0  0  0  0  0
   10.7860    1.8810    0.3920 C   0  0  0  0  0  3  0  0  0  0  0  0
   10.1330    0.7130    0.8430 C   0  0  0  0  0  0  0  0  0  0  0  0
    9.8390   -0.5810    0.2620 C   0  0  0  0  0  0  0  0  0  0  0  0
    9.2210   -1.3260    1.2640 C   0  0  0  0  0  0  0  0  0  0  0  0
    9.0460   -0.4970    2.3460 N   0  0  0  0  0  0  0  0  0  0  0  0
    9.6160    0.7280    2.1320 C   0  0  0  0  0  0  0  0  0  0  0  0
    9.7050    1.8330    2.9880 C   0  0  0  0  0  3  0  0  0  0  0  0
    8.6150   -0.7600    3.2180 H   0  0  0  0  0  0  0  0  0  0  0  0
   10.1570   -0.9850   -1.1520 C   0  0  0  0  0  3  0  0  0  0  0  0
   10.1990    0.1750   -2.1580 C   0  0  0  0  0  2  0  0  0  0  0  0
   11.1070   -0.3460   -3.2610 C   0  0  0  0  0  2  0  0  0  0  0  0
   12.2060   -1.0640   -2.4950 C   0  0  0  0  0  2  0  0  0  0  0  0
   11.4970   -1.7240   -1.3130 C   0  0  0  0  0  2  0  0  0  0  0  0
    8.7770   -2.7520    1.3010 C   0  0  0  0  0  0  0  0  0  0  0  0
    8.9390   -3.7090    0.2610 C   0  0  0  0  0  3  0  0  0  0  0  0
    8.3690   -4.8770    0.7120 C   0  0  0  0  0  3  0  0  0  0  0  0
    7.8500   -4.7010    1.9520 O   0  0  0  0  0  0  0  0  0  0  0  0
    8.0940   -3.4070    2.2990 C   0  0  0  0  0  3  0  0  0  0  0  0
    9.8830    4.1630    4.5550 O   0  0  0  0  0  1  0  0  0  0  0  0
   10.4720    4.2110    3.4290 C   0  0  0  0  0  0  0  0  0  0  0  0
   11.1530    5.1920    2.9890 O   0  0  0  0  0  0  0  0  0  0  0  0
  1  9  1  0  0  0  0
  1 22  1  0  0  0  0
  2  1  2  0  0  0  0
  3  4  2  0  0  0  0
  3  2  1  0  0  0  0
  4  8  1  0  0  0  0
  5  4  1  0  0  0  0
  5  6  2  0  0  0  0
  6 16  1  0  0  0  0
  6  7  1  0  0  0  0
  7 10  1  0  0  0  0
  8  7  1  0  0  0  0
  8  9  2  0  0  0  0
 11  5  1  0  0  0  0
 12 11  1  0  0  0  0
 13 14  1  0  0  0  0
 13 12  1  0  0  0  0
 14 15  1  0  0  0  0
 15 11  1  0  0  0  0
 16 20  2  0  0  0  0
 17 18  2  0  0  0  0
 17 16  1  0  0  0  0
 18 19  1  0  0  0  0
 19 20  1  0  0  0  0
 22 21  1  0  0  0  0
 23 22  2  0  0  0  0
M  END
>  <minimizedAffinity>
-6.31167746

$$$$
