
 OpenBabel09122222393D

 23 26  0  0  0  0  0  0  0  0999 V2000
    9.1360   -3.9470    0.5070 C   0  0  0  0  0  0  0  0  0  0  0  0
    8.6690   -3.1630    1.5700 C   0  0  0  0  0  3  0  0  0  0  0  0
    7.5440   -3.5380    2.3230 C   0  0  0  0  0  3  0  0  0  0  0  0
    6.8550   -4.7320    2.0160 C   0  0  0  0  0  0  0  0  0  0  0  0
    5.7020   -5.4150    2.5660 C   0  0  0  0  0  0  0  0  0  0  0  0
    5.4860   -6.5280    1.7560 C   0  0  0  0  0  0  0  0  0  0  0  0
    6.5120   -6.5790    0.8430 N   0  0  0  0  0  0  0  0  0  0  0  0
    7.3330   -5.4910    0.9550 C   0  0  0  0  0  0  0  0  0  0  0  0
    8.4540   -5.1350    0.1930 C   0  0  0  0  0  3  0  0  0  0  0  0
    6.6240   -7.2830    0.1310 H   0  0  0  0  0  0  0  0  0  0  0  0
    4.9320   -4.9700    3.7800 C   0  0  0  0  0  3  0  0  0  0  0  0
    5.6820   -3.9880    4.6920 C   0  0  0  0  0  2  0  0  0  0  0  0
    4.5660   -3.2450    5.4070 C   0  0  0  0  0  2  0  0  0  0  0  0
    3.5380   -3.0250    4.3090 C   0  0  0  0  0  2  0  0  0  0  0  0
    3.5860   -4.2970    3.4630 C   0  0  0  0  0  2  0  0  0  0  0  0
    4.3990   -7.5530    1.7580 C   0  0  0  0  0  0  0  0  0  0  0  0
    3.8840   -8.2290    2.8990 C   0  0  0  0  0  3  0  0  0  0  0  0
    2.9180   -9.0930    2.4400 C   0  0  0  0  0  3  0  0  0  0  0  0
    2.8150   -9.0110    1.0900 O   0  0  0  0  0  0  0  0  0  0  0  0
    3.7220   -8.0810    0.6840 C   0  0  0  0  0  3  0  0  0  0  0  0
   11.3940   -4.2540   -0.1980 O   0  0  0  0  0  1  0  0  0  0  0  0
   10.3550   -3.5270   -0.2950 C   0  0  0  0  0  0  0  0  0  0  0  0
   10.2460   -2.4790   -1.0070 O   0  0  0  0  0  0  0  0  0  0  0  0
  1  2  1  0  0  0  0
  2  3  2  0  0  0  0
  4  3  1  0  0  0  0
  4  5  1  0  0  0  0
  5 11  1  0  0  0  0
  6 16  1  0  0  0  0
  6  5  2  0  0  0  0
  7  8  1  0  0  0  0
  7  6  1  0  0  0  0
  8  4  2  0  0  0  0
  9  1  2  0  0  0  0
  9  8  1  0  0  0  0
 10  7  1  0  0  0  0
 11 12  1  0  0  0  0
 12 13  1  0  0  0  0
 14 13  1  0  0  0  0
 15 11  1  0  0  0  0
 15 14  1  0  0  0  0
 16 17  1  0  0  0  0
 18 17  2  0  0  0  0
 19 18  1  0  0  0  0
 20 19  1  0  0  0  0
 20 16  2  0  0  0  0
 22 21  1  0  0  0  0
 22  1  1  0  0  0  0
 23 22  2  0  0  0  0
M  END
>  <minimizedAffinity>
-6.71405125

$$$$
