
 OpenBabel09122222393D

 23 26  0  0  0  0  0  0  0  0999 V2000
    2.8520   -2.7300    5.7710 C   0  0  0  0  0  0  0  0  0  0  0  0
    2.6550   -3.9770    6.3780 C   0  0  0  0  0  3  0  0  0  0  0  0
    3.0180   -5.1730    5.7370 C   0  0  0  0  0  3  0  0  0  0  0  0
    3.5960   -5.1360    4.4490 C   0  0  0  0  0  0  0  0  0  0  0  0
    4.0880   -6.1360    3.5210 C   0  0  0  0  0  0  0  0  0  0  0  0
    4.4750   -5.4450    2.3740 C   0  0  0  0  0  0  0  0  0  0  0  0
    4.3350   -4.1030    2.6340 N   0  0  0  0  0  0  0  0  0  0  0  0
    3.7760   -3.8890    3.8640 C   0  0  0  0  0  0  0  0  0  0  0  0
    3.4240   -2.6850    4.4880 C   0  0  0  0  0  3  0  0  0  0  0  0
    4.5480   -3.3600    1.9890 H   0  0  0  0  0  0  0  0  0  0  0  0
    4.1510   -7.6130    3.7980 C   0  0  0  0  0  3  0  0  0  0  0  0
    2.8850   -8.3930    3.4130 C   0  0  0  0  0  2  0  0  0  0  0  0
    3.3960   -9.8070    3.1850 C   0  0  0  0  0  2  0  0  0  0  0  0
    4.7120   -9.5870    2.4570 C   0  0  0  0  0  2  0  0  0  0  0  0
    5.3150   -8.3390    3.0990 C   0  0  0  0  0  2  0  0  0  0  0  0
    4.9650   -5.9310    1.0500 C   0  0  0  0  0  0  0  0  0  0  0  0
    6.2530   -5.6970    0.4930 C   0  0  0  0  0  3  0  0  0  0  0  0
    6.2630   -6.3040   -0.7400 C   0  0  0  0  0  3  0  0  0  0  0  0
    5.0620   -6.8820   -0.9920 O   0  0  0  0  0  0  0  0  0  0  0  0
    4.2780   -6.6440    0.0950 C   0  0  0  0  0  3  0  0  0  0  0  0
    1.5220   -0.7580    5.9570 O   0  0  0  0  0  0  0  0  0  0  0  0
    2.4550   -1.4470    6.4790 C   0  0  0  0  0  0  0  0  0  0  0  0
    3.0850   -1.1550    7.5450 O   0  0  0  0  0  1  0  0  0  0  0  0
  1  2  1  0  0  0  0
  1 22  1  0  0  0  0
  3  2  2  0  0  0  0
  4  3  1  0  0  0  0
  5 11  1  0  0  0  0
  5  4  1  0  0  0  0
  6  7  1  0  0  0  0
  6  5  2  0  0  0  0
  7  8  1  0  0  0  0
  8  4  2  0  0  0  0
  8  9  1  0  0  0  0
  9  1  2  0  0  0  0
 10  7  1  0  0  0  0
 12 11  1  0  0  0  0
 13 12  1  0  0  0  0
 14 15  1  0  0  0  0
 14 13  1  0  0  0  0
 15 11  1  0  0  0  0
 16  6  1  0  0  0  0
 17 16  1  0  0  0  0
 18 17  2  0  0  0  0
 19 18  1  0  0  0  0
 19 20  1  0  0  0  0
 20 16  2  0  0  0  0
 21 22  2  0  0  0  0
 22 23  1  0  0  0  0
M  END
>  <minimizedAffinity>
-6.31324863

$$$$
