
 OpenBabel09122222393D

 23 26  0  0  0  0  0  0  0  0999 V2000
    9.8130   -3.5370    0.6020 C   0  0  0  0  0  0  0  0  0  0  0  0
    9.2210   -4.6010   -0.0910 C   0  0  0  0  0  3  0  0  0  0  0  0
    7.9960   -5.1540    0.3160 C   0  0  0  0  0  3  0  0  0  0  0  0
    7.3310   -4.6380    1.4500 C   0  0  0  0  0  0  0  0  0  0  0  0
    6.0880   -4.9420    2.1300 C   0  0  0  0  0  0  0  0  0  0  0  0
    6.0390   -4.1040    3.2430 C   0  0  0  0  0  0  0  0  0  0  0  0
    7.1250   -3.2660    3.1760 N   0  0  0  0  0  0  0  0  0  0  0  0
    7.9390   -3.5870    2.1240 C   0  0  0  0  0  0  0  0  0  0  0  0
    9.1590   -3.0200    1.7330 C   0  0  0  0  0  3  0  0  0  0  0  0
    7.3470   -2.5460    3.8450 H   0  0  0  0  0  0  0  0  0  0  0  0
    5.0830   -5.9660    1.6770 C   0  0  0  0  0  3  0  0  0  0  0  0
    4.6010   -5.7960    0.2290 C   0  0  0  0  0  2  0  0  0  0  0  0
    4.1560   -7.1960   -0.1630 C   0  0  0  0  0  2  0  0  0  0  0  0
    5.2250   -8.0840    0.4510 C   0  0  0  0  0  2  0  0  0  0  0  0
    5.5710   -7.4210    1.7840 C   0  0  0  0  0  2  0  0  0  0  0  0
    5.0620   -4.0190    4.3700 C   0  0  0  0  0  0  0  0  0  0  0  0
    3.6620   -3.7930    4.2530 C   0  0  0  0  0  3  0  0  0  0  0  0
    3.1610   -3.7680    5.5330 C   0  0  0  0  0  3  0  0  0  0  0  0
    4.1590   -3.9450    6.4340 O   0  0  0  0  0  0  0  0  0  0  0  0
    5.3100   -4.0880    5.7210 C   0  0  0  0  0  3  0  0  0  0  0  0
   11.0930   -2.0010   -0.7000 O   0  0  0  0  0  0  0  0  0  0  0  0
   11.1380   -2.9500    0.1470 C   0  0  0  0  0  0  0  0  0  0  0  0
   12.1950   -3.4500    0.6460 O   0  0  0  0  0  1  0  0  0  0  0  0
  1  9  1  0  0  0  0
  2  3  1  0  0  0  0
  2  1  2  0  0  0  0
  3  4  2  0  0  0  0
  4  8  1  0  0  0  0
  4  5  1  0  0  0  0
  5  6  2  0  0  0  0
  6 16  1  0  0  0  0
  7  6  1  0  0  0  0
  7 10  1  0  0  0  0
  8  7  1  0  0  0  0
  9  8  2  0  0  0  0
 11 15  1  0  0  0  0
 11  5  1  0  0  0  0
 12 11  1  0  0  0  0
 13 12  1  0  0  0  0
 13 14  1  0  0  0  0
 14 15  1  0  0  0  0
 16 20  2  0  0  0  0
 17 16  1  0  0  0  0
 17 18  2  0  0  0  0
 18 19  1  0  0  0  0
 20 19  1  0  0  0  0
 21 22  2  0  0  0  0
 22  1  1  0  0  0  0
 22 23  1  0  0  0  0
M  END
>  <minimizedAffinity>
-6.85231256

$$$$
