
 OpenBabel09122222393D

 23 26  0  0  0  0  0  0  0  0999 V2000
    6.4490   -5.9260   -0.0480 C   0  0  0  0  0  0  0  0  0  0  0  0
    7.3290   -5.5030   -1.0530 C   0  0  0  0  0  3  0  0  0  0  0  0
    8.3710   -4.5990   -0.7860 C   0  0  0  0  0  3  0  0  0  0  0  0
    8.5500   -4.0940    0.5200 C   0  0  0  0  0  0  0  0  0  0  0  0
    9.4920   -3.1850    1.1430 C   0  0  0  0  0  0  0  0  0  0  0  0
    9.0790   -3.0440    2.4670 C   0  0  0  0  0  0  0  0  0  0  0  0
    8.0240   -3.9030    2.6640 N   0  0  0  0  0  0  0  0  0  0  0  0
    7.6630   -4.5230    1.4990 C   0  0  0  0  0  0  0  0  0  0  0  0
    6.6200   -5.4260    1.2540 C   0  0  0  0  0  3  0  0  0  0  0  0
    7.5250   -4.0230    3.5300 H   0  0  0  0  0  0  0  0  0  0  0  0
   10.6680   -2.5530    0.4510 C   0  0  0  0  0  3  0  0  0  0  0  0
   11.4880   -3.5100   -0.4270 C   0  0  0  0  0  2  0  0  0  0  0  0
   12.1450   -2.5860   -1.4410 C   0  0  0  0  0  2  0  0  0  0  0  0
   11.0400   -1.5980   -1.7750 C   0  0  0  0  0  2  0  0  0  0  0  0
   10.3050   -1.3640   -0.4560 C   0  0  0  0  0  2  0  0  0  0  0  0
    9.5850   -2.1730    3.5700 C   0  0  0  0  0  0  0  0  0  0  0  0
   10.1490   -2.6150    4.7980 C   0  0  0  0  0  3  0  0  0  0  0  0
   10.4550   -1.4850    5.5180 C   0  0  0  0  0  3  0  0  0  0  0  0
   10.1010   -0.3730    4.8260 O   0  0  0  0  0  0  0  0  0  0  0  0
    9.5660   -0.8000    3.6480 C   0  0  0  0  0  3  0  0  0  0  0  0
    5.6110   -7.8950   -1.1020 O   0  0  0  0  0  0  0  0  0  0  0  0
    5.3300   -6.9060   -0.3540 C   0  0  0  0  0  0  0  0  0  0  0  0
    4.1930   -6.6650    0.1620 O   0  0  0  0  0  1  0  0  0  0  0  0
  1  9  1  0  0  0  0
  2  3  1  0  0  0  0
  2  1  2  0  0  0  0
  3  4  2  0  0  0  0
  4  5  1  0  0  0  0
  4  8  1  0  0  0  0
  5  6  2  0  0  0  0
  6  7  1  0  0  0  0
  6 16  1  0  0  0  0
  7 10  1  0  0  0  0
  8  7  1  0  0  0  0
  9  8  2  0  0  0  0
 11  5  1  0  0  0  0
 12 11  1  0  0  0  0
 13 12  1  0  0  0  0
 14 13  1  0  0  0  0
 14 15  1  0  0  0  0
 15 11  1  0  0  0  0
 16 20  2  0  0  0  0
 16 17  1  0  0  0  0
 17 18  2  0  0  0  0
 19 18  1  0  0  0  0
 20 19  1  0  0  0  0
 21 22  2  0  0  0  0
 22  1  1  0  0  0  0
 22 23  1  0  0  0  0
M  END
>  <minimizedAffinity>
-7.44809341

$$$$
