
 OpenBabel09122222393D

 23 26  0  0  0  0  0  0  0  0999 V2000
    4.9920   -6.3250    1.0470 C   0  0  0  0  0  0  0  0  0  0  0  0
    4.5770   -7.3620    1.8930 C   0  0  0  0  0  3  0  0  0  0  0  0
    3.9690   -7.1020    3.1320 C   0  0  0  0  0  3  0  0  0  0  0  0
    3.7620   -5.7700    3.5520 C   0  0  0  0  0  0  0  0  0  0  0  0
    3.1750   -5.1470    4.7220 C   0  0  0  0  0  0  0  0  0  0  0  0
    3.3440   -3.7740    4.5570 C   0  0  0  0  0  0  0  0  0  0  0  0
    3.8920   -3.5710    3.3140 N   0  0  0  0  0  0  0  0  0  0  0  0
    4.1860   -4.7580    2.7000 C   0  0  0  0  0  0  0  0  0  0  0  0
    4.7920   -4.9960    1.4590 C   0  0  0  0  0  3  0  0  0  0  0  0
    4.1190   -2.6740    2.9170 H   0  0  0  0  0  0  0  0  0  0  0  0
    2.5210   -5.8870    5.8570 C   0  0  0  0  0  3  0  0  0  0  0  0
    1.2710   -6.6900    5.4650 C   0  0  0  0  0  2  0  0  0  0  0  0
    1.1970   -7.7720    6.5310 C   0  0  0  0  0  2  0  0  0  0  0  0
    2.6500   -8.1810    6.7110 C   0  0  0  0  0  2  0  0  0  0  0  0
    3.4450   -6.8830    6.5800 C   0  0  0  0  0  2  0  0  0  0  0  0
    3.0360   -2.6280    5.4650 C   0  0  0  0  0  0  0  0  0  0  0  0
    3.8500   -2.1600    6.5330 C   0  0  0  0  0  3  0  0  0  0  0  0
    3.1760   -1.1090    7.1090 C   0  0  0  0  0  3  0  0  0  0  0  0
    1.9910   -0.9070    6.4790 O   0  0  0  0  0  0  0  0  0  0  0  0
    1.9100   -1.8380    5.4890 C   0  0  0  0  0  3  0  0  0  0  0  0
    6.5170   -5.7960   -0.7090 O   0  0  0  0  0  1  0  0  0  0  0  0
    5.6460   -6.6230   -0.2900 C   0  0  0  0  0  0  0  0  0  0  0  0
    5.2760   -7.6800   -0.8930 O   0  0  0  0  0  0  0  0  0  0  0  0
  1  9  2  0  0  0  0
  1  2  1  0  0  0  0
  2  3  2  0  0  0  0
  3  4  1  0  0  0  0
  4  5  1  0  0  0  0
  5 11  1  0  0  0  0
  6  5  2  0  0  0  0
  6 16  1  0  0  0  0
  7  6  1  0  0  0  0
  8  7  1  0  0  0  0
  8  4  2  0  0  0  0
  9  8  1  0  0  0  0
 10  7  1  0  0  0  0
 11 15  1  0  0  0  0
 12 11  1  0  0  0  0
 12 13  1  0  0  0  0
 13 14  1  0  0  0  0
 15 14  1  0  0  0  0
 16 20  2  0  0  0  0
 16 17  1  0  0  0  0
 17 18  2  0  0  0  0
 19 18  1  0  0  0  0
 20 19  1  0  0  0  0
 21 22  1  0  0  0  0
 22  1  1  0  0  0  0
 23 22  2  0  0  0  0
M  END
>  <minimizedAffinity>
-6.66305017

$$$$
