
 OpenBabel09122222393D

 23 26  0  0  0  0  0  0  0  0999 V2000
    3.6780   -3.8050    5.3370 C   0  0  0  0  0  0  0  0  0  0  0  0
    3.1070   -4.8660    4.6220 C   0  0  0  0  0  3  0  0  0  0  0  0
    3.7540   -5.4430    3.5170 C   0  0  0  0  0  3  0  0  0  0  0  0
    5.0120   -4.9540    3.1020 C   0  0  0  0  0  0  0  0  0  0  0  0
    5.9450   -5.3010    2.0480 C   0  0  0  0  0  0  0  0  0  0  0  0
    6.9860   -4.3780    2.1310 C   0  0  0  0  0  0  0  0  0  0  0  0
    6.7560   -3.5950    3.2370 N   0  0  0  0  0  0  0  0  0  0  0  0
    5.5570   -3.8980    3.8210 C   0  0  0  0  0  0  0  0  0  0  0  0
    4.9290   -3.3110    4.9270 C   0  0  0  0  0  3  0  0  0  0  0  0
    7.3490   -2.8450    3.5530 H   0  0  0  0  0  0  0  0  0  0  0  0
    5.7750   -6.4460    1.0880 C   0  0  0  0  0  3  0  0  0  0  0  0
    5.3050   -7.7600    1.7300 C   0  0  0  0  0  2  0  0  0  0  0  0
    4.6310   -8.4940    0.5820 C   0  0  0  0  0  2  0  0  0  0  0  0
    3.8750   -7.3900   -0.1390 C   0  0  0  0  0  2  0  0  0  0  0  0
    4.7890   -6.1680   -0.0600 C   0  0  0  0  0  2  0  0  0  0  0  0
    8.1820   -4.1620    1.2640 C   0  0  0  0  0  0  0  0  0  0  0  0
    9.1510   -3.1310    1.4100 C   0  0  0  0  0  3  0  0  0  0  0  0
   10.0580   -3.2960    0.3900 C   0  0  0  0  0  3  0  0  0  0  0  0
    9.7040   -4.3490   -0.3890 O   0  0  0  0  0  0  0  0  0  0  0  0
    8.5610   -4.8630    0.1430 C   0  0  0  0  0  3  0  0  0  0  0  0
    2.4020   -2.0660    6.3570 O   0  0  0  0  0  0  0  0  0  0  0  0
    2.9650   -3.1940    6.5300 C   0  0  0  0  0  0  0  0  0  0  0  0
    2.9810   -3.8560    7.6160 O   0  0  0  0  0  1  0  0  0  0  0  0
  1 22  1  0  0  0  0
  2  1  2  0  0  0  0
  3  2  1  0  0  0  0
  4  3  2  0  0  0  0
  4  8  1  0  0  0  0
  5  6  2  0  0  0  0
  5  4  1  0  0  0  0
  6  7  1  0  0  0  0
  7 10  1  0  0  0  0
  7  8  1  0  0  0  0
  8  9  2  0  0  0  0
  9  1  1  0  0  0  0
 11 12  1  0  0  0  0
 11  5  1  0  0  0  0
 13 12  1  0  0  0  0
 14 15  1  0  0  0  0
 14 13  1  0  0  0  0
 15 11  1  0  0  0  0
 16 17  1  0  0  0  0
 16  6  1  0  0  0  0
 18 17  2  0  0  0  0
 19 20  1  0  0  0  0
 19 18  1  0  0  0  0
 20 16  2  0  0  0  0
 21 22  2  0  0  0  0
 22 23  1  0  0  0  0
M  END
>  <minimizedAffinity>
-6.31866169

$$$$
