
 OpenBabel08192222423D

 27 28  0  0  1  0  0  0  0  0999 V2000
   -7.0600   30.9560  -33.7750 C   0  0  0  0  0  0  0  0  0  0  0  0
   -7.8550   31.2300  -32.6000 C   0  0  0  0  0  3  0  0  0  0  0  0
   -9.1950   30.9930  -32.7780 C   0  0  0  0  0  0  0  0  0  0  0  0
   -9.5420   30.5690  -34.3810 S   0  0  0  0  0  0  0  0  0  0  0  0
   -7.8730   30.5440  -34.8260 C   0  0  0  0  0  0  0  0  0  0  0  0
   -5.1210   32.3280  -34.3700 C   0  0  0  0  0  0  0  0  0  0  0  0
   -3.9880   32.3760  -34.8640 O   0  0  0  0  0  0  0  0  0  0  0  0
   -5.6570   31.1710  -33.7880 N   0  0  0  0  0  0  0  0  0  0  0  0
   -6.9320   37.8450  -33.7950 C   0  0  0  0  0  1  0  0  0  0  0  0
   -6.1070   36.5640  -33.9090 C   0  0  2  0  0  3  0  0  0  0  0  0
   -6.3250   35.9070  -35.2780 C   0  0  0  0  0  2  0  0  0  0  0  0
   -5.5610   34.5900  -35.3950 C   0  0  0  0  0  2  0  0  0  0  0  0
   -5.9430   33.6240  -34.2670 C   0  0  2  0  0  3  0  0  0  0  0  0
   -5.6950   34.2710  -32.8980 C   0  0  0  0  0  2  0  0  0  0  0  0
   -6.4500   35.5950  -32.7680 C   0  0  0  0  0  2  0  0  0  0  0  0
   -4.7490   30.0450  -33.4520 C   0  0  0  0  0  3  0  0  0  0  0  0
   -3.9600   30.3220  -32.1670 C   0  0  0  0  0  1  0  0  0  0  0  0
   -5.4680   28.6930  -33.3640 C   0  0  0  0  0  1  0  0  0  0  0  0
   -7.4590   30.0370  -36.1710 C   0  0  0  0  0  0  0  0  0  0  0  0
   -7.0320   30.8940  -37.0070 O   0  0  0  0  0  0  0  0  0  0  0  0
   -7.5800   28.7940  -36.4020 O   0  0  0  0  0  1  0  0  0  0  0  0
  -10.1760   31.0770  -31.7480 C   0  0  0  0  0  0  0  0  0  0  0  0
  -11.0110   31.0780  -30.8840 C   0  0  0  0  0  0  0  0  0  0  0  0
  -12.0510   31.0210  -29.8350 C   0  0  0  0  0  0  0  0  0  0  0  0
  -12.5430   32.4430  -29.5310 C   0  0  0  0  0  1  0  0  0  0  0  0
  -13.2260   30.1630  -30.3220 C   0  0  0  0  0  1  0  0  0  0  0  0
  -11.4540   30.4040  -28.5640 C   0  0  0  0  0  1  0  0  0  0  0  0
  1  2  1  0  0  0  0
  3  2  2  0  0  0  0
  3 22  1  0  0  0  0
  4  3  1  0  0  0  0
  5  4  1  0  0  0  0
  5  1  2  0  0  0  0
  6  8  1  0  0  0  0
  7  6  2  0  0  0  0
  8  1  1  0  0  0  0
  8 16  1  0  0  0  0
 10  9  1  6  0  0  0
 10 15  1  0  0  0  0
 11 10  1  0  0  0  0
 12 11  1  0  0  0  0
 12 13  1  0  0  0  0
 13  6  1  1  0  0  0
 13 14  1  0  0  0  0
 14 15  1  0  0  0  0
 16 18  1  0  0  0  0
 16 17  1  0  0  0  0
 19  5  1  0  0  0  0
 20 19  2  0  0  0  0
 21 19  1  0  0  0  0
 22 23  3  0  0  0  0
 23 24  1  0  0  0  0
 24 25  1  0  0  0  0
 24 27  1  0  0  0  0
 26 24  1  0  0  0  0
M  END
>  <minimizedAffinity>
-5.35559893

$$$$
