
 OpenBabel08192222423D

 27 28  0  0  1  0  0  0  0  0999 V2000
   -9.1020   33.4240   -5.0800 C   0  0  0  0  0  0  0  0  0  0  0  0
   -8.8280   32.0740   -4.6470 C   0  0  0  0  0  3  0  0  0  0  0  0
   -8.4420   31.2380   -5.6650 C   0  0  0  0  0  0  0  0  0  0  0  0
   -8.5280   32.0140   -7.1690 S   0  0  0  0  0  0  0  0  0  0  0  0
   -8.9360   33.5350   -6.4570 C   0  0  0  0  0  0  0  0  0  0  0  0
  -10.9000   34.7540   -4.0840 C   0  0  0  0  0  0  0  0  0  0  0  0
  -11.3040   35.8700   -3.7370 O   0  0  0  0  0  0  0  0  0  0  0  0
   -9.5420   34.4210   -4.1710 N   0  0  0  0  0  0  0  0  0  0  0  0
  -15.7250   31.5990   -4.9890 C   0  0  0  0  0  1  0  0  0  0  0  0
  -14.7110   32.7230   -4.7760 C   0  0  2  0  0  3  0  0  0  0  0  0
  -13.6670   32.7210   -5.9010 C   0  0  0  0  0  2  0  0  0  0  0  0
  -12.6030   33.7940   -5.6780 C   0  0  0  0  0  2  0  0  0  0  0  0
  -11.9250   33.6300   -4.3120 C   0  0  2  0  0  3  0  0  0  0  0  0
  -12.9680   33.6630   -3.1870 C   0  0  0  0  0  2  0  0  0  0  0  0
  -14.0440   32.5970   -3.3990 C   0  0  0  0  0  2  0  0  0  0  0  0
   -8.5380   35.3070   -3.5280 C   0  0  0  0  0  3  0  0  0  0  0  0
   -8.8160   35.4790   -2.0300 C   0  0  0  0  0  1  0  0  0  0  0  0
   -7.0920   34.8550   -3.7620 C   0  0  0  0  0  1  0  0  0  0  0  0
   -8.9870   34.7700   -7.2990 C   0  0  0  0  0  0  0  0  0  0  0  0
   -7.8800   35.3390   -7.5590 O   0  0  0  0  0  1  0  0  0  0  0  0
  -10.1240   35.1850   -7.6790 O   0  0  0  0  0  0  0  0  0  0  0  0
   -8.0090   29.8920   -5.4890 C   0  0  0  0  0  0  0  0  0  0  0  0
   -7.5860   28.7820   -5.3090 C   0  0  0  0  0  0  0  0  0  0  0  0
   -7.0120   27.4410   -5.0720 C   0  0  0  0  0  0  0  0  0  0  0  0
   -5.9560   27.5310   -3.9610 C   0  0  0  0  0  1  0  0  0  0  0  0
   -8.1240   26.4740   -4.6460 C   0  0  0  0  0  1  0  0  0  0  0  0
   -6.3540   26.9360   -6.3630 C   0  0  0  0  0  1  0  0  0  0  0  0
  1  2  1  0  0  0  0
  1  8  1  0  0  0  0
  3 22  1  0  0  0  0
  3  2  2  0  0  0  0
  4  5  1  0  0  0  0
  4  3  1  0  0  0  0
  5  1  2  0  0  0  0
  6  7  2  0  0  0  0
  8  6  1  0  0  0  0
  8 16  1  0  0  0  0
 10  9  1  6  0  0  0
 10 15  1  0  0  0  0
 11 12  1  0  0  0  0
 11 10  1  0  0  0  0
 12 13  1  0  0  0  0
 13  6  1  1  0  0  0
 13 14  1  0  0  0  0
 15 14  1  0  0  0  0
 16 17  1  0  0  0  0
 18 16  1  0  0  0  0
 19  5  1  0  0  0  0
 20 19  1  0  0  0  0
 21 19  2  0  0  0  0
 22 23  3  0  0  0  0
 23 24  1  0  0  0  0
 24 26  1  0  0  0  0
 24 25  1  0  0  0  0
 27 24  1  0  0  0  0
M  END
>  <minimizedAffinity>
-5.54933167

$$$$
