
 OpenBabel08192222423D

 27 28  0  0  1  0  0  0  0  0999 V2000
   -7.9420   33.0780  -33.5450 C   0  0  0  0  0  0  0  0  0  0  0  0
   -9.2630   32.5890  -33.2260 C   0  0  0  0  0  3  0  0  0  0  0  0
   -9.3180   31.8840  -32.0490 C   0  0  0  0  0  0  0  0  0  0  0  0
   -7.7760   31.6810  -31.3760 S   0  0  0  0  0  0  0  0  0  0  0  0
   -7.0280   32.6740  -32.5760 C   0  0  0  0  0  0  0  0  0  0  0  0
   -8.2520   35.0690  -34.9350 C   0  0  0  0  0  0  0  0  0  0  0  0
   -8.5040   35.5320  -36.0540 O   0  0  0  0  0  0  0  0  0  0  0  0
   -7.6860   33.8030  -34.7370 N   0  0  0  0  0  0  0  0  0  0  0  0
   -9.1560   39.5000  -31.2470 C   0  0  0  0  0  1  0  0  0  0  0  0
   -8.9760   38.6160  -32.4800 C   0  0  2  0  0  3  0  0  0  0  0  0
  -10.0470   37.5170  -32.5120 C   0  0  0  0  0  2  0  0  0  0  0  0
   -9.8520   36.5790  -33.7010 C   0  0  0  0  0  2  0  0  0  0  0  0
   -8.4470   35.9630  -33.6990 C   0  0  2  0  0  3  0  0  0  0  0  0
   -7.3780   37.0640  -33.6990 C   0  0  0  0  0  2  0  0  0  0  0  0
   -7.5630   38.0150  -32.5160 C   0  0  0  0  0  2  0  0  0  0  0  0
   -7.0620   33.1030  -35.8890 C   0  0  0  0  0  3  0  0  0  0  0  0
   -5.6210   33.5730  -36.1210 C   0  0  0  0  0  1  0  0  0  0  0  0
   -7.1210   31.5750  -35.7740 C   0  0  0  0  0  1  0  0  0  0  0  0
   -5.5900   33.0640  -32.4420 C   0  0  0  0  0  0  0  0  0  0  0  0
   -4.7940   32.1880  -31.9760 O   0  0  0  0  0  1  0  0  0  0  0  0
   -5.2590   34.2430  -32.7760 O   0  0  0  0  0  0  0  0  0  0  0  0
  -10.5160   31.3930  -31.4540 C   0  0  0  0  0  0  0  0  0  0  0  0
  -11.5620   31.0080  -31.0060 C   0  0  0  0  0  0  0  0  0  0  0  0
  -12.8780   30.5700  -30.4950 C   0  0  0  0  0  0  0  0  0  0  0  0
  -13.9800   31.4280  -31.1320 C   0  0  0  0  0  1  0  0  0  0  0  0
  -13.1030   29.0950  -30.8520 C   0  0  0  0  0  1  0  0  0  0  0  0
  -12.9120   30.7430  -28.9710 C   0  0  0  0  0  1  0  0  0  0  0  0
  1  2  1  0  0  0  0
  1  5  2  0  0  0  0
  2  3  2  0  0  0  0
  3 22  1  0  0  0  0
  3  4  1  0  0  0  0
  5 19  1  0  0  0  0
  5  4  1  0  0  0  0
  6  8  1  0  0  0  0
  7  6  2  0  0  0  0
  8  1  1  0  0  0  0
 10  9  1  1  0  0  0
 11 10  1  0  0  0  0
 12 13  1  0  0  0  0
 12 11  1  0  0  0  0
 13  6  1  6  0  0  0
 14 13  1  0  0  0  0
 14 15  1  0  0  0  0
 15 10  1  0  0  0  0
 16 18  1  0  0  0  0
 16  8  1  0  0  0  0
 17 16  1  0  0  0  0
 19 20  1  0  0  0  0
 21 19  2  0  0  0  0
 22 23  3  0  0  0  0
 23 24  1  0  0  0  0
 24 27  1  0  0  0  0
 25 24  1  0  0  0  0
 26 24  1  0  0  0  0
M  END
>  <minimizedAffinity>
-7.68083954

$$$$
