
 OpenBabel08192222423D

 27 28  0  0  1  0  0  0  0  0999 V2000
   10.5100   32.7260   47.2970 C   0  0  0  0  0  0  0  0  0  0  0  0
    9.8860   31.4300   47.1640 C   0  0  0  0  0  3  0  0  0  0  0  0
    8.5480   31.4930   46.8680 C   0  0  0  0  0  0  0  0  0  0  0  0
    7.9860   33.0920   46.8740 S   0  0  0  0  0  0  0  0  0  0  0  0
    9.5700   33.7370   47.1210 C   0  0  0  0  0  0  0  0  0  0  0  0
   12.2650   33.3300   48.8940 C   0  0  0  0  0  0  0  0  0  0  0  0
   13.3260   33.9300   49.1010 O   0  0  0  0  0  0  0  0  0  0  0  0
   11.8830   32.8590   47.6310 N   0  0  0  0  0  0  0  0  0  0  0  0
   10.1480   31.6560   54.0670 C   0  0  0  0  0  1  0  0  0  0  0  0
   11.0430   32.0290   52.8870 C   0  0  2  0  0  3  0  0  0  0  0  0
   10.8350   33.5000   52.5010 C   0  0  0  0  0  2  0  0  0  0  0  0
   11.6710   33.8830   51.2820 C   0  0  0  0  0  2  0  0  0  0  0  0
   11.3700   32.9650   50.0910 C   0  0  2  0  0  3  0  0  0  0  0  0
   11.6100   31.4970   50.4690 C   0  0  0  0  0  2  0  0  0  0  0  0
   10.7820   31.1000   51.6930 C   0  0  0  0  0  2  0  0  0  0  0  0
   12.9010   32.7770   46.5520 C   0  0  0  0  0  3  0  0  0  0  0  0
   13.5900   31.4080   46.5300 C   0  0  0  0  0  1  0  0  0  0  0  0
   12.3440   33.1250   45.1660 C   0  0  0  0  0  1  0  0  0  0  0  0
    9.8030   35.2130   47.0430 C   0  0  0  0  0  0  0  0  0  0  0  0
    9.9270   35.7180   45.8840 O   0  0  0  0  0  0  0  0  0  0  0  0
    9.8840   35.8610   48.1320 O   0  0  0  0  0  1  0  0  0  0  0  0
    7.7280   30.3640   46.5780 C   0  0  0  0  0  0  0  0  0  0  0  0
    7.0960   29.3760   46.3180 C   0  0  0  0  0  0  0  0  0  0  0  0
    6.3690   28.1350   45.9770 C   0  0  0  0  0  0  0  0  0  0  0  0
    7.3800   27.0000   45.7600 C   0  0  0  0  0  1  0  0  0  0  0  0
    5.4190   27.7650   47.1230 C   0  0  0  0  0  1  0  0  0  0  0  0
    5.5650   28.3560   44.6900 C   0  0  0  0  0  1  0  0  0  0  0  0
  1  8  1  0  0  0  0
  2  1  1  0  0  0  0
  3  4  1  0  0  0  0
  3  2  2  0  0  0  0
  4  5  1  0  0  0  0
  5  1  2  0  0  0  0
  6  7  2  0  0  0  0
  8  6  1  0  0  0  0
 10  9  1  1  0  0  0
 11 10  1  0  0  0  0
 12 11  1  0  0  0  0
 13  6  1  6  0  0  0
 13 14  1  0  0  0  0
 13 12  1  0  0  0  0
 14 15  1  0  0  0  0
 15 10  1  0  0  0  0
 16  8  1  0  0  0  0
 17 16  1  0  0  0  0
 18 16  1  0  0  0  0
 19  5  1  0  0  0  0
 19 21  1  0  0  0  0
 20 19  2  0  0  0  0
 22  3  1  0  0  0  0
 23 22  3  0  0  0  0
 24 23  1  0  0  0  0
 24 26  1  0  0  0  0
 25 24  1  0  0  0  0
 27 24  1  0  0  0  0
M  END
>  <minimizedAffinity>
-5.33825874

$$$$
