
 OpenBabel08192222423D

 27 28  0  0  1  0  0  0  0  0999 V2000
    6.5510   36.0610   76.9130 C   0  0  0  0  0  0  0  0  0  0  0  0
    5.4170   35.1840   76.7390 C   0  0  0  0  0  3  0  0  0  0  0  0
    5.1780   34.3750   77.8210 C   0  0  0  0  0  0  0  0  0  0  0  0
    6.3780   34.5520   79.0050 S   0  0  0  0  0  0  0  0  0  0  0  0
    7.1530   35.8370   78.1470 C   0  0  0  0  0  0  0  0  0  0  0  0
    7.9480   36.5590   74.9650 C   0  0  0  0  0  0  0  0  0  0  0  0
    8.7020   37.3590   74.3970 O   0  0  0  0  0  0  0  0  0  0  0  0
    6.9680   36.9480   75.8870 N   0  0  0  0  0  0  0  0  0  0  0  0
    8.4980   31.4920   72.1230 C   0  0  0  0  0  1  0  0  0  0  0  0
    8.4690   32.9660   72.5260 C   0  0  2  0  0  3  0  0  0  0  0  0
    9.4660   33.2300   73.6620 C   0  0  0  0  0  2  0  0  0  0  0  0
    9.4120   34.6830   74.1290 C   0  0  0  0  0  2  0  0  0  0  0  0
    7.9920   35.0770   74.5550 C   0  0  2  0  0  3  0  0  0  0  0  0
    7.0020   34.8420   73.4070 C   0  0  0  0  0  2  0  0  0  0  0  0
    7.0480   33.3910   72.9250 C   0  0  0  0  0  2  0  0  0  0  0  0
    6.5800   38.3800   75.9680 C   0  0  0  0  0  3  0  0  0  0  0  0
    5.8600   38.8410   74.6950 C   0  0  0  0  0  1  0  0  0  0  0  0
    5.7470   38.7130   77.2110 C   0  0  0  0  0  1  0  0  0  0  0  0
    8.2650   36.6060   78.7870 C   0  0  0  0  0  0  0  0  0  0  0  0
    9.4120   36.5230   78.2460 O   0  0  0  0  0  0  0  0  0  0  0  0
    8.0030   37.2710   79.8360 O   0  0  0  0  0  1  0  0  0  0  0  0
    4.0590   33.5010   77.9490 C   0  0  0  0  0  0  0  0  0  0  0  0
    3.0750   32.8160   78.0290 C   0  0  0  0  0  0  0  0  0  0  0  0
    1.8310   32.0220   78.1100 C   0  0  0  0  0  0  0  0  0  0  0  0
    1.7180   31.4010   79.5100 C   0  0  0  0  0  1  0  0  0  0  0  0
    0.6230   32.9310   77.8510 C   0  0  0  0  0  1  0  0  0  0  0  0
    1.8730   30.9060   77.0580 C   0  0  0  0  0  1  0  0  0  0  0  0
  1  5  2  0  0  0  0
  2  1  1  0  0  0  0
  2  3  2  0  0  0  0
  3 22  1  0  0  0  0
  3  4  1  0  0  0  0
  5 19  1  0  0  0  0
  5  4  1  0  0  0  0
  6  8  1  0  0  0  0
  7  6  2  0  0  0  0
  8 16  1  0  0  0  0
  8  1  1  0  0  0  0
 10  9  1  1  0  0  0
 10 15  1  0  0  0  0
 10 11  1  0  0  0  0
 11 12  1  0  0  0  0
 12 13  1  0  0  0  0
 13  6  1  6  0  0  0
 14 13  1  0  0  0  0
 15 14  1  0  0  0  0
 16 18  1  0  0  0  0
 17 16  1  0  0  0  0
 19 21  1  0  0  0  0
 20 19  2  0  0  0  0
 22 23  3  0  0  0  0
 23 24  1  0  0  0  0
 24 25  1  0  0  0  0
 26 24  1  0  0  0  0
 27 24  1  0  0  0  0
M  END
>  <minimizedAffinity>
-5.33800554

$$$$
