
 OpenBabel08192222423D

 27 28  0  0  1  0  0  0  0  0999 V2000
   11.8680   30.2400   25.7020 C   0  0  0  0  0  0  0  0  0  0  0  0
   12.2450   30.8780   24.4620 C   0  0  0  0  0  3  0  0  0  0  0  0
   13.0630   30.1070   23.6750 C   0  0  0  0  0  0  0  0  0  0  0  0
   13.5000   28.6690   24.4570 S   0  0  0  0  0  0  0  0  0  0  0  0
   12.4690   28.9890   25.8060 C   0  0  0  0  0  0  0  0  0  0  0  0
    9.6790   31.0640   26.4260 C   0  0  0  0  0  0  0  0  0  0  0  0
    9.0180   31.9960   26.9000 O   0  0  0  0  0  0  0  0  0  0  0  0
   11.0510   30.8980   26.6570 N   0  0  0  0  0  0  0  0  0  0  0  0
    5.8650   27.1150   24.4470 C   0  0  0  0  0  1  0  0  0  0  0  0
    6.5780   28.2250   25.2170 C   0  0  2  0  0  3  0  0  0  0  0  0
    6.8920   29.4060   24.2880 C   0  0  0  0  0  2  0  0  0  0  0  0
    7.6620   30.5030   25.0180 C   0  0  0  0  0  2  0  0  0  0  0  0
    8.9490   29.9550   25.6470 C   0  0  2  0  0  3  0  0  0  0  0  0
    8.6300   28.7960   26.6000 C   0  0  0  0  0  2  0  0  0  0  0  0
    7.8530   27.6900   25.8840 C   0  0  0  0  0  2  0  0  0  0  0  0
   11.6950   31.6610   27.7570 C   0  0  0  0  0  3  0  0  0  0  0  0
   11.2080   33.1140   27.7950 C   0  0  0  0  0  1  0  0  0  0  0  0
   11.5310   31.0000   29.1310 C   0  0  0  0  0  1  0  0  0  0  0  0
   12.2500   27.9430   26.8520 C   0  0  0  0  0  0  0  0  0  0  0  0
   12.8850   28.0760   27.9450 O   0  0  0  0  0  1  0  0  0  0  0  0
   11.4690   26.9810   26.5780 O   0  0  0  0  0  0  0  0  0  0  0  0
   13.4850   30.4560   22.3590 C   0  0  0  0  0  0  0  0  0  0  0  0
   13.7900   30.8000   21.2490 C   0  0  0  0  0  0  0  0  0  0  0  0
   14.1150   31.2570   19.8810 C   0  0  0  0  0  0  0  0  0  0  0  0
   13.0370   30.7540   18.9100 C   0  0  0  0  0  1  0  0  0  0  0  0
   14.1630   32.7890   19.8490 C   0  0  0  0  0  1  0  0  0  0  0  0
   15.4800   30.6890   19.4690 C   0  0  0  0  0  1  0  0  0  0  0  0
  1  5  2  0  0  0  0
  1  8  1  0  0  0  0
  2  1  1  0  0  0  0
  3  4  1  0  0  0  0
  3  2  2  0  0  0  0
  4  5  1  0  0  0  0
  5 19  1  0  0  0  0
  6  8  1  0  0  0  0
  6  7  2  0  0  0  0
  8 16  1  0  0  0  0
 10  9  1  6  0  0  0
 10 15  1  0  0  0  0
 11 12  1  0  0  0  0
 11 10  1  0  0  0  0
 12 13  1  0  0  0  0
 13  6  1  1  0  0  0
 13 14  1  0  0  0  0
 15 14  1  0  0  0  0
 16 17  1  0  0  0  0
 16 18  1  0  0  0  0
 19 20  1  0  0  0  0
 21 19  2  0  0  0  0
 22  3  1  0  0  0  0
 23 22  3  0  0  0  0
 24 23  1  0  0  0  0
 25 24  1  0  0  0  0
 26 24  1  0  0  0  0
 27 24  1  0  0  0  0
M  END
>  <minimizedAffinity>
-5.27539921

$$$$
