
 OpenBabel08192222423D

 27 28  0  0  1  0  0  0  0  0999 V2000
    8.0560   33.4170   74.2160 C   0  0  0  0  0  0  0  0  0  0  0  0
    9.3790   32.9170   73.9220 C   0  0  0  0  0  3  0  0  0  0  0  0
    9.4500   32.2110   72.7470 C   0  0  0  0  0  0  0  0  0  0  0  0
    7.9190   32.0210   72.0450 S   0  0  0  0  0  0  0  0  0  0  0  0
    7.1570   33.0210   73.2300 C   0  0  0  0  0  0  0  0  0  0  0  0
    8.3450   35.4120   75.6050 C   0  0  0  0  0  0  0  0  0  0  0  0
    8.5820   35.8790   76.7260 O   0  0  0  0  0  0  0  0  0  0  0  0
    7.7840   34.1440   75.4030 N   0  0  0  0  0  0  0  0  0  0  0  0
    9.3280   39.8280   71.9190 C   0  0  0  0  0  1  0  0  0  0  0  0
    9.1350   38.9460   73.1520 C   0  0  2  0  0  3  0  0  0  0  0  0
   10.1810   37.8230   73.1760 C   0  0  0  0  0  2  0  0  0  0  0  0
    9.9720   36.8880   74.3650 C   0  0  0  0  0  2  0  0  0  0  0  0
    8.5530   36.3040   74.3690 C   0  0  2  0  0  3  0  0  0  0  0  0
    7.5090   37.4280   74.3770 C   0  0  0  0  0  2  0  0  0  0  0  0
    7.7100   38.3770   73.1940 C   0  0  0  0  0  2  0  0  0  0  0  0
    7.1470   33.4460   76.5490 C   0  0  0  0  0  3  0  0  0  0  0  0
    5.6920   33.8900   76.7420 C   0  0  0  0  0  1  0  0  0  0  0  0
    7.2380   31.9180   76.4540 C   0  0  0  0  0  1  0  0  0  0  0  0
    5.7260   33.4230   73.0680 C   0  0  0  0  0  0  0  0  0  0  0  0
    4.9240   32.5420   72.6250 O   0  0  0  0  0  0  0  0  0  0  0  0
    5.4070   34.6170   73.3580 O   0  0  0  0  0  1  0  0  0  0  0  0
   10.6550   31.7090   72.1750 C   0  0  0  0  0  0  0  0  0  0  0  0
   11.6620   31.3320   71.6410 C   0  0  0  0  0  0  0  0  0  0  0  0
   12.8880   30.9020   70.9340 C   0  0  0  0  0  0  0  0  0  0  0  0
   13.2670   29.4870   71.3920 C   0  0  0  0  0  1  0  0  0  0  0  0
   12.6350   30.9040   69.4210 C   0  0  0  0  0  1  0  0  0  0  0  0
   14.0300   31.8710   71.2680 C   0  0  0  0  0  1  0  0  0  0  0  0
  1  8  1  0  0  0  0
  2  1  1  0  0  0  0
  3  2  2  0  0  0  0
  4  3  1  0  0  0  0
  4  5  1  0  0  0  0
  5  1  2  0  0  0  0
  6  7  2  0  0  0  0
  8  6  1  0  0  0  0
  8 16  1  0  0  0  0
 10  9  1  6  0  0  0
 10 11  1  0  0  0  0
 10 15  1  0  0  0  0
 11 12  1  0  0  0  0
 12 13  1  0  0  0  0
 13 14  1  0  0  0  0
 13  6  1  1  0  0  0
 15 14  1  0  0  0  0
 16 17  1  0  0  0  0
 18 16  1  0  0  0  0
 19  5  1  0  0  0  0
 19 21  1  0  0  0  0
 20 19  2  0  0  0  0
 22  3  1  0  0  0  0
 23 22  3  0  0  0  0
 24 27  1  0  0  0  0
 24 25  1  0  0  0  0
 24 23  1  0  0  0  0
 26 24  1  0  0  0  0
M  END
>  <minimizedAffinity>
-7.73942852

$$$$
