
 OpenBabel08192222423D

 27 28  0  0  1  0  0  0  0  0999 V2000
    8.0560   33.4170   74.2160 C   0  0  0  0  0  0  0  0  0  0  0  0
    9.3790   32.9170   73.9220 C   0  0  0  0  0  3  0  0  0  0  0  0
    9.4500   32.2110   72.7470 C   0  0  0  0  0  0  0  0  0  0  0  0
    7.9190   32.0210   72.0450 S   0  0  0  0  0  0  0  0  0  0  0  0
    7.1570   33.0210   73.2300 C   0  0  0  0  0  0  0  0  0  0  0  0
    8.3450   35.4120   75.6050 C   0  0  0  0  0  0  0  0  0  0  0  0
    8.5820   35.8790   76.7260 O   0  0  0  0  0  0  0  0  0  0  0  0
    7.7840   34.1440   75.4030 N   0  0  0  0  0  0  0  0  0  0  0  0
    9.3280   39.8280   71.9190 C   0  0  0  0  0  1  0  0  0  0  0  0
    9.1350   38.9460   73.1520 C   0  0  2  0  0  3  0  0  0  0  0  0
   10.1810   37.8230   73.1760 C   0  0  0  0  0  2  0  0  0  0  0  0
    9.9720   36.8880   74.3650 C   0  0  0  0  0  2  0  0  0  0  0  0
    8.5530   36.3040   74.3690 C   0  0  2  0  0  3  0  0  0  0  0  0
    7.5090   37.4280   74.3770 C   0  0  0  0  0  2  0  0  0  0  0  0
    7.7100   38.3770   73.1940 C   0  0  0  0  0  2  0  0  0  0  0  0
    7.1470   33.4460   76.5490 C   0  0  0  0  0  3  0  0  0  0  0  0
    5.6920   33.8900   76.7420 C   0  0  0  0  0  1  0  0  0  0  0  0
    7.2380   31.9180   76.4540 C   0  0  0  0  0  1  0  0  0  0  0  0
    5.7260   33.4230   73.0680 C   0  0  0  0  0  0  0  0  0  0  0  0
    4.9240   32.5420   72.6250 O   0  0  0  0  0  0  0  0  0  0  0  0
    5.4070   34.6170   73.3580 O   0  0  0  0  0  1  0  0  0  0  0  0
   10.6550   31.7090   72.1750 C   0  0  0  0  0  0  0  0  0  0  0  0
   11.6620   31.3320   71.6410 C   0  0  0  0  0  0  0  0  0  0  0  0
   12.8880   30.9020   70.9340 C   0  0  0  0  0  0  0  0  0  0  0  0
   13.2670   29.4870   71.3920 C   0  0  0  0  0  1  0  0  0  0  0  0
   12.6350   30.9040   69.4210 C   0  0  0  0  0  1  0  0  0  0  0  0
   14.0300   31.8710   71.2680 C   0  0  0  0  0  1  0  0  0  0  0  0
  1  8  1  0  0  0  0
  2  1  1  0  0  0  0
  3  2  2  0  0  0  0
  4  3  1  0  0  0  0
  4  5  1  0  0  0  0
  5  1  2  0  0  0  0
  6  7  2  0  0  0  0
  8  6  1  0  0  0  0
  8 16  1  0  0  0  0
 10  9  1  6  0  0  0
 10 11  1  0  0  0  0
 10 15  1  0  0  0  0
 11 12  1  0  0  0  0
 12 13  1  0  0  0  0
 13 14  1  0  0  0  0
 13  6  1  1  0  0  0
 15 14  1  0  0  0  0
 16 17  1  0  0  0  0
 18 16  1  0  0  0  0
 19  5  1  0  0  0  0
 19 21  1  0  0  0  0
 20 19  2  0  0  0  0
 22  3  1  0  0  0  0
 23 22  3  0  0  0  0
 24 27  1  0  0  0  0
 24 25  1  0  0  0  0
 24 23  1  0  0  0  0
 26 24  1  0  0  0  0
M  END
>  <minimizedAffinity>
-7.73942852

$$$$

 OpenBabel08192222423D

 27 28  0  0  1  0  0  0  0  0999 V2000
   -7.9420   33.0780  -33.5450 C   0  0  0  0  0  0  0  0  0  0  0  0
   -9.2630   32.5890  -33.2260 C   0  0  0  0  0  3  0  0  0  0  0  0
   -9.3180   31.8840  -32.0490 C   0  0  0  0  0  0  0  0  0  0  0  0
   -7.7760   31.6810  -31.3760 S   0  0  0  0  0  0  0  0  0  0  0  0
   -7.0280   32.6740  -32.5760 C   0  0  0  0  0  0  0  0  0  0  0  0
   -8.2520   35.0690  -34.9350 C   0  0  0  0  0  0  0  0  0  0  0  0
   -8.5040   35.5320  -36.0540 O   0  0  0  0  0  0  0  0  0  0  0  0
   -7.6860   33.8030  -34.7370 N   0  0  0  0  0  0  0  0  0  0  0  0
   -9.1560   39.5000  -31.2470 C   0  0  0  0  0  1  0  0  0  0  0  0
   -8.9760   38.6160  -32.4800 C   0  0  2  0  0  3  0  0  0  0  0  0
  -10.0470   37.5170  -32.5120 C   0  0  0  0  0  2  0  0  0  0  0  0
   -9.8520   36.5790  -33.7010 C   0  0  0  0  0  2  0  0  0  0  0  0
   -8.4470   35.9630  -33.6990 C   0  0  2  0  0  3  0  0  0  0  0  0
   -7.3780   37.0640  -33.6990 C   0  0  0  0  0  2  0  0  0  0  0  0
   -7.5630   38.0150  -32.5160 C   0  0  0  0  0  2  0  0  0  0  0  0
   -7.0620   33.1030  -35.8890 C   0  0  0  0  0  3  0  0  0  0  0  0
   -5.6210   33.5730  -36.1210 C   0  0  0  0  0  1  0  0  0  0  0  0
   -7.1210   31.5750  -35.7740 C   0  0  0  0  0  1  0  0  0  0  0  0
   -5.5900   33.0640  -32.4420 C   0  0  0  0  0  0  0  0  0  0  0  0
   -4.7940   32.1880  -31.9760 O   0  0  0  0  0  1  0  0  0  0  0  0
   -5.2590   34.2430  -32.7760 O   0  0  0  0  0  0  0  0  0  0  0  0
  -10.5160   31.3930  -31.4540 C   0  0  0  0  0  0  0  0  0  0  0  0
  -11.5620   31.0080  -31.0060 C   0  0  0  0  0  0  0  0  0  0  0  0
  -12.8780   30.5700  -30.4950 C   0  0  0  0  0  0  0  0  0  0  0  0
  -13.9800   31.4280  -31.1320 C   0  0  0  0  0  1  0  0  0  0  0  0
  -13.1030   29.0950  -30.8520 C   0  0  0  0  0  1  0  0  0  0  0  0
  -12.9120   30.7430  -28.9710 C   0  0  0  0  0  1  0  0  0  0  0  0
  1  2  1  0  0  0  0
  1  5  2  0  0  0  0
  2  3  2  0  0  0  0
  3 22  1  0  0  0  0
  3  4  1  0  0  0  0
  5 19  1  0  0  0  0
  5  4  1  0  0  0  0
  6  8  1  0  0  0  0
  7  6  2  0  0  0  0
  8  1  1  0  0  0  0
 10  9  1  1  0  0  0
 11 10  1  0  0  0  0
 12 13  1  0  0  0  0
 12 11  1  0  0  0  0
 13  6  1  6  0  0  0
 14 13  1  0  0  0  0
 14 15  1  0  0  0  0
 15 10  1  0  0  0  0
 16 18  1  0  0  0  0
 16  8  1  0  0  0  0
 17 16  1  0  0  0  0
 19 20  1  0  0  0  0
 21 19  2  0  0  0  0
 22 23  3  0  0  0  0
 23 24  1  0  0  0  0
 24 27  1  0  0  0  0
 25 24  1  0  0  0  0
 26 24  1  0  0  0  0
M  END
>  <minimizedAffinity>
-7.68083954

$$$$

 OpenBabel08192222423D

 27 28  0  0  1  0  0  0  0  0999 V2000
   -9.2700   34.3050   -4.7870 C   0  0  0  0  0  0  0  0  0  0  0  0
  -10.1680   34.5010   -3.6730 C   0  0  0  0  0  3  0  0  0  0  0  0
  -11.2670   35.2620   -3.9810 C   0  0  0  0  0  0  0  0  0  0  0  0
  -11.1800   35.8650   -5.5630 S   0  0  0  0  0  0  0  0  0  0  0  0
   -9.7360   34.9810   -5.9110 C   0  0  0  0  0  0  0  0  0  0  0  0
   -8.0560   32.1790   -4.8200 C   0  0  0  0  0  0  0  0  0  0  0  0
   -7.2440   31.4310   -4.2620 O   0  0  0  0  0  0  0  0  0  0  0  0
   -8.0640   33.5700   -4.6490 N   0  0  0  0  0  0  0  0  0  0  0  0
  -10.7940   28.8210   -8.7290 C   0  0  0  0  0  1  0  0  0  0  0  0
   -9.8300   29.4010   -7.6960 C   0  0  2  0  0  3  0  0  0  0  0  0
  -10.5500   29.6310   -6.3610 C   0  0  0  0  0  2  0  0  0  0  0  0
   -9.6250   30.2700   -5.3280 C   0  0  0  0  0  2  0  0  0  0  0  0
   -9.0300   31.5830   -5.8520 C   0  0  2  0  0  3  0  0  0  0  0  0
   -8.2820   31.3450   -7.1710 C   0  0  0  0  0  2  0  0  0  0  0  0
   -9.1950   30.7000   -8.2140 C   0  0  0  0  0  2  0  0  0  0  0  0
   -6.8800   34.2290   -4.0430 C   0  0  0  0  0  3  0  0  0  0  0  0
   -5.8930   34.7110   -5.1130 C   0  0  0  0  0  1  0  0  0  0  0  0
   -7.2450   35.3740   -3.0900 C   0  0  0  0  0  1  0  0  0  0  0  0
   -9.1940   34.9440   -7.3040 C   0  0  0  0  0  0  0  0  0  0  0  0
   -9.9820   34.5520   -8.2210 O   0  0  0  0  0  0  0  0  0  0  0  0
   -7.9830   35.2810   -7.4810 O   0  0  0  0  0  1  0  0  0  0  0  0
  -12.3560   35.5100   -3.0960 C   0  0  0  0  0  0  0  0  0  0  0  0
  -13.2550   35.6600   -2.3130 C   0  0  0  0  0  0  0  0  0  0  0  0
  -14.3490   35.7900   -1.3270 C   0  0  0  0  0  0  0  0  0  0  0  0
  -15.0530   34.4350   -1.1710 C   0  0  0  0  0  1  0  0  0  0  0  0
  -13.7730   36.2300    0.0250 C   0  0  0  0  0  1  0  0  0  0  0  0
  -15.3560   36.8350   -1.8240 C   0  0  0  0  0  1  0  0  0  0  0  0
  1  8  1  0  0  0  0
  1  2  1  0  0  0  0
  3  2  2  0  0  0  0
  3 22  1  0  0  0  0
  4  3  1  0  0  0  0
  5  4  1  0  0  0  0
  5  1  2  0  0  0  0
  6  8  1  0  0  0  0
  6  7  2  0  0  0  0
  8 16  1  0  0  0  0
 10  9  1  6  0  0  0
 10 11  1  0  0  0  0
 11 12  1  0  0  0  0
 13 12  1  0  0  0  0
 13  6  1  1  0  0  0
 14 13  1  0  0  0  0
 15 10  1  0  0  0  0
 15 14  1  0  0  0  0
 16 18  1  0  0  0  0
 17 16  1  0  0  0  0
 19  5  1  0  0  0  0
 20 19  2  0  0  0  0
 21 19  1  0  0  0  0
 22 23  3  0  0  0  0
 23 24  1  0  0  0  0
 24 25  1  0  0  0  0
 24 26  1  0  0  0  0
 27 24  1  0  0  0  0
M  END
>  <minimizedAffinity>
-5.75439644

$$$$

 OpenBabel08192222423D

 27 28  0  0  1  0  0  0  0  0999 V2000
   -9.1020   33.4240   -5.0800 C   0  0  0  0  0  0  0  0  0  0  0  0
   -8.8280   32.0740   -4.6470 C   0  0  0  0  0  3  0  0  0  0  0  0
   -8.4420   31.2380   -5.6650 C   0  0  0  0  0  0  0  0  0  0  0  0
   -8.5280   32.0140   -7.1690 S   0  0  0  0  0  0  0  0  0  0  0  0
   -8.9360   33.5350   -6.4570 C   0  0  0  0  0  0  0  0  0  0  0  0
  -10.9000   34.7540   -4.0840 C   0  0  0  0  0  0  0  0  0  0  0  0
  -11.3040   35.8700   -3.7370 O   0  0  0  0  0  0  0  0  0  0  0  0
   -9.5420   34.4210   -4.1710 N   0  0  0  0  0  0  0  0  0  0  0  0
  -15.7250   31.5990   -4.9890 C   0  0  0  0  0  1  0  0  0  0  0  0
  -14.7110   32.7230   -4.7760 C   0  0  2  0  0  3  0  0  0  0  0  0
  -13.6670   32.7210   -5.9010 C   0  0  0  0  0  2  0  0  0  0  0  0
  -12.6030   33.7940   -5.6780 C   0  0  0  0  0  2  0  0  0  0  0  0
  -11.9250   33.6300   -4.3120 C   0  0  2  0  0  3  0  0  0  0  0  0
  -12.9680   33.6630   -3.1870 C   0  0  0  0  0  2  0  0  0  0  0  0
  -14.0440   32.5970   -3.3990 C   0  0  0  0  0  2  0  0  0  0  0  0
   -8.5380   35.3070   -3.5280 C   0  0  0  0  0  3  0  0  0  0  0  0
   -8.8160   35.4790   -2.0300 C   0  0  0  0  0  1  0  0  0  0  0  0
   -7.0920   34.8550   -3.7620 C   0  0  0  0  0  1  0  0  0  0  0  0
   -8.9870   34.7700   -7.2990 C   0  0  0  0  0  0  0  0  0  0  0  0
   -7.8800   35.3390   -7.5590 O   0  0  0  0  0  1  0  0  0  0  0  0
  -10.1240   35.1850   -7.6790 O   0  0  0  0  0  0  0  0  0  0  0  0
   -8.0090   29.8920   -5.4890 C   0  0  0  0  0  0  0  0  0  0  0  0
   -7.5860   28.7820   -5.3090 C   0  0  0  0  0  0  0  0  0  0  0  0
   -7.0120   27.4410   -5.0720 C   0  0  0  0  0  0  0  0  0  0  0  0
   -5.9560   27.5310   -3.9610 C   0  0  0  0  0  1  0  0  0  0  0  0
   -8.1240   26.4740   -4.6460 C   0  0  0  0  0  1  0  0  0  0  0  0
   -6.3540   26.9360   -6.3630 C   0  0  0  0  0  1  0  0  0  0  0  0
  1  2  1  0  0  0  0
  1  8  1  0  0  0  0
  3 22  1  0  0  0  0
  3  2  2  0  0  0  0
  4  5  1  0  0  0  0
  4  3  1  0  0  0  0
  5  1  2  0  0  0  0
  6  7  2  0  0  0  0
  8  6  1  0  0  0  0
  8 16  1  0  0  0  0
 10  9  1  6  0  0  0
 10 15  1  0  0  0  0
 11 12  1  0  0  0  0
 11 10  1  0  0  0  0
 12 13  1  0  0  0  0
 13  6  1  1  0  0  0
 13 14  1  0  0  0  0
 15 14  1  0  0  0  0
 16 17  1  0  0  0  0
 18 16  1  0  0  0  0
 19  5  1  0  0  0  0
 20 19  1  0  0  0  0
 21 19  2  0  0  0  0
 22 23  3  0  0  0  0
 23 24  1  0  0  0  0
 24 26  1  0  0  0  0
 24 25  1  0  0  0  0
 27 24  1  0  0  0  0
M  END
>  <minimizedAffinity>
-5.54933167

$$$$

 OpenBabel08192222423D

 27 28  0  0  1  0  0  0  0  0999 V2000
   12.1120   28.8290   24.9230 C   0  0  0  0  0  0  0  0  0  0  0  0
   12.1710   29.5710   23.6860 C   0  0  0  0  0  3  0  0  0  0  0  0
   13.4500   29.8710   23.2870 C   0  0  0  0  0  0  0  0  0  0  0  0
   14.5900   29.3880   24.4440 S   0  0  0  0  0  0  0  0  0  0  0  0
   13.3920   28.6270   25.4300 C   0  0  0  0  0  0  0  0  0  0  0  0
   10.5020   28.9520   26.7640 C   0  0  0  0  0  0  0  0  0  0  0  0
    9.7530   28.3450   27.5380 O   0  0  0  0  0  0  0  0  0  0  0  0
   10.8740   28.4560   25.5070 N   0  0  0  0  0  0  0  0  0  0  0  0
   11.1630   34.2380   29.1450 C   0  0  0  0  0  1  0  0  0  0  0  0
   10.7170   32.8180   28.7970 C   0  0  2  0  0  3  0  0  0  0  0  0
   11.8810   31.8330   28.9730 C   0  0  0  0  0  2  0  0  0  0  0  0
   11.4800   30.4160   28.5690 C   0  0  0  0  0  2  0  0  0  0  0  0
   10.9540   30.3760   27.1300 C   0  0  2  0  0  3  0  0  0  0  0  0
    9.7700   31.3390   26.9630 C   0  0  0  0  0  2  0  0  0  0  0  0
   10.1540   32.7620   27.3690 C   0  0  0  0  0  2  0  0  0  0  0  0
   10.1110   27.3230   24.9230 C   0  0  0  0  0  3  0  0  0  0  0  0
    8.9030   27.8130   24.1150 C   0  0  0  0  0  1  0  0  0  0  0  0
   10.9770   26.3790   24.0820 C   0  0  0  0  0  1  0  0  0  0  0  0
   13.8010   27.8020   26.6090 C   0  0  0  0  0  0  0  0  0  0  0  0
   13.6280   26.5450   26.5230 O   0  0  0  0  0  0  0  0  0  0  0  0
   14.2700   28.4030   27.6230 O   0  0  0  0  0  1  0  0  0  0  0  0
   13.7880   30.4960   22.0510 C   0  0  0  0  0  0  0  0  0  0  0  0
   14.0130   30.9960   20.9820 C   0  0  0  0  0  0  0  0  0  0  0  0
   14.2430   31.5790   19.6440 C   0  0  0  0  0  0  0  0  0  0  0  0
   15.6230   31.1410   19.1310 C   0  0  0  0  0  1  0  0  0  0  0  0
   13.1570   31.0920   18.6770 C   0  0  0  0  0  1  0  0  0  0  0  0
   14.1970   33.1100   19.7440 C   0  0  0  0  0  1  0  0  0  0  0  0
  1  5  2  0  0  0  0
  1  8  1  0  0  0  0
  2  1  1  0  0  0  0
  3  2  2  0  0  0  0
  3  4  1  0  0  0  0
  4  5  1  0  0  0  0
  5 19  1  0  0  0  0
  6  7  2  0  0  0  0
  8  6  1  0  0  0  0
 10 11  1  0  0  0  0
 10  9  1  6  0  0  0
 12 11  1  0  0  0  0
 13  6  1  1  0  0  0
 13 12  1  0  0  0  0
 14 13  1  0  0  0  0
 14 15  1  0  0  0  0
 15 10  1  0  0  0  0
 16  8  1  0  0  0  0
 17 16  1  0  0  0  0
 18 16  1  0  0  0  0
 19 21  1  0  0  0  0
 20 19  2  0  0  0  0
 22  3  1  0  0  0  0
 23 22  3  0  0  0  0
 24 27  1  0  0  0  0
 24 23  1  0  0  0  0
 25 24  1  0  0  0  0
 26 24  1  0  0  0  0
M  END
>  <minimizedAffinity>
-5.42212582

$$$$

 OpenBabel08192222423D

 27 28  0  0  1  0  0  0  0  0999 V2000
   -7.0600   30.9560  -33.7750 C   0  0  0  0  0  0  0  0  0  0  0  0
   -7.8550   31.2300  -32.6000 C   0  0  0  0  0  3  0  0  0  0  0  0
   -9.1950   30.9930  -32.7780 C   0  0  0  0  0  0  0  0  0  0  0  0
   -9.5420   30.5690  -34.3810 S   0  0  0  0  0  0  0  0  0  0  0  0
   -7.8730   30.5440  -34.8260 C   0  0  0  0  0  0  0  0  0  0  0  0
   -5.1210   32.3280  -34.3700 C   0  0  0  0  0  0  0  0  0  0  0  0
   -3.9880   32.3760  -34.8640 O   0  0  0  0  0  0  0  0  0  0  0  0
   -5.6570   31.1710  -33.7880 N   0  0  0  0  0  0  0  0  0  0  0  0
   -6.9320   37.8450  -33.7950 C   0  0  0  0  0  1  0  0  0  0  0  0
   -6.1070   36.5640  -33.9090 C   0  0  2  0  0  3  0  0  0  0  0  0
   -6.3250   35.9070  -35.2780 C   0  0  0  0  0  2  0  0  0  0  0  0
   -5.5610   34.5900  -35.3950 C   0  0  0  0  0  2  0  0  0  0  0  0
   -5.9430   33.6240  -34.2670 C   0  0  2  0  0  3  0  0  0  0  0  0
   -5.6950   34.2710  -32.8980 C   0  0  0  0  0  2  0  0  0  0  0  0
   -6.4500   35.5950  -32.7680 C   0  0  0  0  0  2  0  0  0  0  0  0
   -4.7490   30.0450  -33.4520 C   0  0  0  0  0  3  0  0  0  0  0  0
   -3.9600   30.3220  -32.1670 C   0  0  0  0  0  1  0  0  0  0  0  0
   -5.4680   28.6930  -33.3640 C   0  0  0  0  0  1  0  0  0  0  0  0
   -7.4590   30.0370  -36.1710 C   0  0  0  0  0  0  0  0  0  0  0  0
   -7.0320   30.8940  -37.0070 O   0  0  0  0  0  0  0  0  0  0  0  0
   -7.5800   28.7940  -36.4020 O   0  0  0  0  0  1  0  0  0  0  0  0
  -10.1760   31.0770  -31.7480 C   0  0  0  0  0  0  0  0  0  0  0  0
  -11.0110   31.0780  -30.8840 C   0  0  0  0  0  0  0  0  0  0  0  0
  -12.0510   31.0210  -29.8350 C   0  0  0  0  0  0  0  0  0  0  0  0
  -12.5430   32.4430  -29.5310 C   0  0  0  0  0  1  0  0  0  0  0  0
  -13.2260   30.1630  -30.3220 C   0  0  0  0  0  1  0  0  0  0  0  0
  -11.4540   30.4040  -28.5640 C   0  0  0  0  0  1  0  0  0  0  0  0
  1  2  1  0  0  0  0
  3  2  2  0  0  0  0
  3 22  1  0  0  0  0
  4  3  1  0  0  0  0
  5  4  1  0  0  0  0
  5  1  2  0  0  0  0
  6  8  1  0  0  0  0
  7  6  2  0  0  0  0
  8  1  1  0  0  0  0
  8 16  1  0  0  0  0
 10  9  1  6  0  0  0
 10 15  1  0  0  0  0
 11 10  1  0  0  0  0
 12 11  1  0  0  0  0
 12 13  1  0  0  0  0
 13  6  1  1  0  0  0
 13 14  1  0  0  0  0
 14 15  1  0  0  0  0
 16 18  1  0  0  0  0
 16 17  1  0  0  0  0
 19  5  1  0  0  0  0
 20 19  2  0  0  0  0
 21 19  1  0  0  0  0
 22 23  3  0  0  0  0
 23 24  1  0  0  0  0
 24 25  1  0  0  0  0
 24 27  1  0  0  0  0
 26 24  1  0  0  0  0
M  END
>  <minimizedAffinity>
-5.35559893

$$$$

 OpenBabel08192222423D

 27 28  0  0  1  0  0  0  0  0999 V2000
   10.5100   32.7260   47.2970 C   0  0  0  0  0  0  0  0  0  0  0  0
    9.8860   31.4300   47.1640 C   0  0  0  0  0  3  0  0  0  0  0  0
    8.5480   31.4930   46.8680 C   0  0  0  0  0  0  0  0  0  0  0  0
    7.9860   33.0920   46.8740 S   0  0  0  0  0  0  0  0  0  0  0  0
    9.5700   33.7370   47.1210 C   0  0  0  0  0  0  0  0  0  0  0  0
   12.2650   33.3300   48.8940 C   0  0  0  0  0  0  0  0  0  0  0  0
   13.3260   33.9300   49.1010 O   0  0  0  0  0  0  0  0  0  0  0  0
   11.8830   32.8590   47.6310 N   0  0  0  0  0  0  0  0  0  0  0  0
   10.1480   31.6560   54.0670 C   0  0  0  0  0  1  0  0  0  0  0  0
   11.0430   32.0290   52.8870 C   0  0  2  0  0  3  0  0  0  0  0  0
   10.8350   33.5000   52.5010 C   0  0  0  0  0  2  0  0  0  0  0  0
   11.6710   33.8830   51.2820 C   0  0  0  0  0  2  0  0  0  0  0  0
   11.3700   32.9650   50.0910 C   0  0  2  0  0  3  0  0  0  0  0  0
   11.6100   31.4970   50.4690 C   0  0  0  0  0  2  0  0  0  0  0  0
   10.7820   31.1000   51.6930 C   0  0  0  0  0  2  0  0  0  0  0  0
   12.9010   32.7770   46.5520 C   0  0  0  0  0  3  0  0  0  0  0  0
   13.5900   31.4080   46.5300 C   0  0  0  0  0  1  0  0  0  0  0  0
   12.3440   33.1250   45.1660 C   0  0  0  0  0  1  0  0  0  0  0  0
    9.8030   35.2130   47.0430 C   0  0  0  0  0  0  0  0  0  0  0  0
    9.9270   35.7180   45.8840 O   0  0  0  0  0  0  0  0  0  0  0  0
    9.8840   35.8610   48.1320 O   0  0  0  0  0  1  0  0  0  0  0  0
    7.7280   30.3640   46.5780 C   0  0  0  0  0  0  0  0  0  0  0  0
    7.0960   29.3760   46.3180 C   0  0  0  0  0  0  0  0  0  0  0  0
    6.3690   28.1350   45.9770 C   0  0  0  0  0  0  0  0  0  0  0  0
    7.3800   27.0000   45.7600 C   0  0  0  0  0  1  0  0  0  0  0  0
    5.4190   27.7650   47.1230 C   0  0  0  0  0  1  0  0  0  0  0  0
    5.5650   28.3560   44.6900 C   0  0  0  0  0  1  0  0  0  0  0  0
  1  8  1  0  0  0  0
  2  1  1  0  0  0  0
  3  4  1  0  0  0  0
  3  2  2  0  0  0  0
  4  5  1  0  0  0  0
  5  1  2  0  0  0  0
  6  7  2  0  0  0  0
  8  6  1  0  0  0  0
 10  9  1  1  0  0  0
 11 10  1  0  0  0  0
 12 11  1  0  0  0  0
 13  6  1  6  0  0  0
 13 14  1  0  0  0  0
 13 12  1  0  0  0  0
 14 15  1  0  0  0  0
 15 10  1  0  0  0  0
 16  8  1  0  0  0  0
 17 16  1  0  0  0  0
 18 16  1  0  0  0  0
 19  5  1  0  0  0  0
 19 21  1  0  0  0  0
 20 19  2  0  0  0  0
 22  3  1  0  0  0  0
 23 22  3  0  0  0  0
 24 23  1  0  0  0  0
 24 26  1  0  0  0  0
 25 24  1  0  0  0  0
 27 24  1  0  0  0  0
M  END
>  <minimizedAffinity>
-5.33825874

$$$$

 OpenBabel08192222423D

 27 28  0  0  1  0  0  0  0  0999 V2000
    6.5510   36.0610   76.9130 C   0  0  0  0  0  0  0  0  0  0  0  0
    5.4170   35.1840   76.7390 C   0  0  0  0  0  3  0  0  0  0  0  0
    5.1780   34.3750   77.8210 C   0  0  0  0  0  0  0  0  0  0  0  0
    6.3780   34.5520   79.0050 S   0  0  0  0  0  0  0  0  0  0  0  0
    7.1530   35.8370   78.1470 C   0  0  0  0  0  0  0  0  0  0  0  0
    7.9480   36.5590   74.9650 C   0  0  0  0  0  0  0  0  0  0  0  0
    8.7020   37.3590   74.3970 O   0  0  0  0  0  0  0  0  0  0  0  0
    6.9680   36.9480   75.8870 N   0  0  0  0  0  0  0  0  0  0  0  0
    8.4980   31.4920   72.1230 C   0  0  0  0  0  1  0  0  0  0  0  0
    8.4690   32.9660   72.5260 C   0  0  2  0  0  3  0  0  0  0  0  0
    9.4660   33.2300   73.6620 C   0  0  0  0  0  2  0  0  0  0  0  0
    9.4120   34.6830   74.1290 C   0  0  0  0  0  2  0  0  0  0  0  0
    7.9920   35.0770   74.5550 C   0  0  2  0  0  3  0  0  0  0  0  0
    7.0020   34.8420   73.4070 C   0  0  0  0  0  2  0  0  0  0  0  0
    7.0480   33.3910   72.9250 C   0  0  0  0  0  2  0  0  0  0  0  0
    6.5800   38.3800   75.9680 C   0  0  0  0  0  3  0  0  0  0  0  0
    5.8600   38.8410   74.6950 C   0  0  0  0  0  1  0  0  0  0  0  0
    5.7470   38.7130   77.2110 C   0  0  0  0  0  1  0  0  0  0  0  0
    8.2650   36.6060   78.7870 C   0  0  0  0  0  0  0  0  0  0  0  0
    9.4120   36.5230   78.2460 O   0  0  0  0  0  0  0  0  0  0  0  0
    8.0030   37.2710   79.8360 O   0  0  0  0  0  1  0  0  0  0  0  0
    4.0590   33.5010   77.9490 C   0  0  0  0  0  0  0  0  0  0  0  0
    3.0750   32.8160   78.0290 C   0  0  0  0  0  0  0  0  0  0  0  0
    1.8310   32.0220   78.1100 C   0  0  0  0  0  0  0  0  0  0  0  0
    1.7180   31.4010   79.5100 C   0  0  0  0  0  1  0  0  0  0  0  0
    0.6230   32.9310   77.8510 C   0  0  0  0  0  1  0  0  0  0  0  0
    1.8730   30.9060   77.0580 C   0  0  0  0  0  1  0  0  0  0  0  0
  1  5  2  0  0  0  0
  2  1  1  0  0  0  0
  2  3  2  0  0  0  0
  3 22  1  0  0  0  0
  3  4  1  0  0  0  0
  5 19  1  0  0  0  0
  5  4  1  0  0  0  0
  6  8  1  0  0  0  0
  7  6  2  0  0  0  0
  8 16  1  0  0  0  0
  8  1  1  0  0  0  0
 10  9  1  1  0  0  0
 10 15  1  0  0  0  0
 10 11  1  0  0  0  0
 11 12  1  0  0  0  0
 12 13  1  0  0  0  0
 13  6  1  6  0  0  0
 14 13  1  0  0  0  0
 15 14  1  0  0  0  0
 16 18  1  0  0  0  0
 17 16  1  0  0  0  0
 19 21  1  0  0  0  0
 20 19  2  0  0  0  0
 22 23  3  0  0  0  0
 23 24  1  0  0  0  0
 24 25  1  0  0  0  0
 26 24  1  0  0  0  0
 27 24  1  0  0  0  0
M  END
>  <minimizedAffinity>
-5.33800554

$$$$

 OpenBabel08192222423D

 27 28  0  0  1  0  0  0  0  0999 V2000
  -11.0330   33.0450   61.1270 C   0  0  0  0  0  0  0  0  0  0  0  0
  -11.0030   34.4830   60.9930 C   0  0  0  0  0  3  0  0  0  0  0  0
  -10.8020   35.1400   62.1810 C   0  0  0  0  0  0  0  0  0  0  0  0
  -10.7780   34.0630   63.4890 S   0  0  0  0  0  0  0  0  0  0  0  0
  -10.8810   32.6790   62.4600 C   0  0  0  0  0  0  0  0  0  0  0  0
  -10.3990   32.2340   58.9050 C   0  0  0  0  0  0  0  0  0  0  0  0
  -10.7570   31.9480   57.7560 O   0  0  0  0  0  0  0  0  0  0  0  0
  -11.2600   32.2000   60.0100 N   0  0  0  0  0  0  0  0  0  0  0  0
   -4.5800   32.5920   58.6660 C   0  0  0  0  0  1  0  0  0  0  0  0
   -6.0570   32.3170   58.3880 C   0  0  2  0  0  3  0  0  0  0  0  0
   -6.8330   33.6350   58.2670 C   0  0  0  0  0  2  0  0  0  0  0  0
   -8.3250   33.3880   58.0520 C   0  0  0  0  0  2  0  0  0  0  0  0
   -8.9110   32.5180   59.1710 C   0  0  2  0  0  3  0  0  0  0  0  0
   -8.1530   31.1880   59.2700 C   0  0  0  0  0  2  0  0  0  0  0  0
   -6.6560   31.4190   59.4800 C   0  0  0  0  0  2  0  0  0  0  0  0
  -12.5640   31.4980   59.8880 C   0  0  0  0  0  3  0  0  0  0  0  0
  -12.4440   30.0180   60.2680 C   0  0  0  0  0  1  0  0  0  0  0  0
  -13.6910   32.1710   60.6810 C   0  0  0  0  0  1  0  0  0  0  0  0
  -10.7220   31.3050   63.0290 C   0  0  0  0  0  0  0  0  0  0  0  0
  -11.6720   30.8620   63.7470 O   0  0  0  0  0  1  0  0  0  0  0  0
   -9.6460   30.6790   62.7810 O   0  0  0  0  0  0  0  0  0  0  0  0
  -10.6220   36.5480   62.3080 C   0  0  0  0  0  0  0  0  0  0  0  0
  -10.4000   37.7240   62.4150 C   0  0  0  0  0  0  0  0  0  0  0  0
  -10.0690   39.1570   62.5590 C   0  0  0  0  0  0  0  0  0  0  0  0
   -9.2590   39.6150   61.3380 C   0  0  0  0  0  1  0  0  0  0  0  0
  -11.3620   39.9770   62.6560 C   0  0  0  0  0  1  0  0  0  0  0  0
   -9.2340   39.3590   63.8310 C   0  0  0  0  0  1  0  0  0  0  0  0
  1  5  2  0  0  0  0
  2  1  1  0  0  0  0
  2  3  2  0  0  0  0
  3 22  1  0  0  0  0
  3  4  1  0  0  0  0
  5 19  1  0  0  0  0
  5  4  1  0  0  0  0
  6  8  1  0  0  0  0
  7  6  2  0  0  0  0
  8  1  1  0  0  0  0
 10  9  1  1  0  0  0
 10 15  1  0  0  0  0
 11 10  1  0  0  0  0
 12 11  1  0  0  0  0
 12 13  1  0  0  0  0
 13  6  1  6  0  0  0
 13 14  1  0  0  0  0
 14 15  1  0  0  0  0
 16  8  1  0  0  0  0
 16 17  1  0  0  0  0
 16 18  1  0  0  0  0
 19 20  1  0  0  0  0
 21 19  2  0  0  0  0
 22 23  3  0  0  0  0
 23 24  1  0  0  0  0
 24 26  1  0  0  0  0
 24 27  1  0  0  0  0
 25 24  1  0  0  0  0
M  END
>  <minimizedAffinity>
-5.33406639

$$$$

 OpenBabel08192222423D

 27 28  0  0  1  0  0  0  0  0999 V2000
   11.8680   30.2400   25.7020 C   0  0  0  0  0  0  0  0  0  0  0  0
   12.2450   30.8780   24.4620 C   0  0  0  0  0  3  0  0  0  0  0  0
   13.0630   30.1070   23.6750 C   0  0  0  0  0  0  0  0  0  0  0  0
   13.5000   28.6690   24.4570 S   0  0  0  0  0  0  0  0  0  0  0  0
   12.4690   28.9890   25.8060 C   0  0  0  0  0  0  0  0  0  0  0  0
    9.6790   31.0640   26.4260 C   0  0  0  0  0  0  0  0  0  0  0  0
    9.0180   31.9960   26.9000 O   0  0  0  0  0  0  0  0  0  0  0  0
   11.0510   30.8980   26.6570 N   0  0  0  0  0  0  0  0  0  0  0  0
    5.8650   27.1150   24.4470 C   0  0  0  0  0  1  0  0  0  0  0  0
    6.5780   28.2250   25.2170 C   0  0  2  0  0  3  0  0  0  0  0  0
    6.8920   29.4060   24.2880 C   0  0  0  0  0  2  0  0  0  0  0  0
    7.6620   30.5030   25.0180 C   0  0  0  0  0  2  0  0  0  0  0  0
    8.9490   29.9550   25.6470 C   0  0  2  0  0  3  0  0  0  0  0  0
    8.6300   28.7960   26.6000 C   0  0  0  0  0  2  0  0  0  0  0  0
    7.8530   27.6900   25.8840 C   0  0  0  0  0  2  0  0  0  0  0  0
   11.6950   31.6610   27.7570 C   0  0  0  0  0  3  0  0  0  0  0  0
   11.2080   33.1140   27.7950 C   0  0  0  0  0  1  0  0  0  0  0  0
   11.5310   31.0000   29.1310 C   0  0  0  0  0  1  0  0  0  0  0  0
   12.2500   27.9430   26.8520 C   0  0  0  0  0  0  0  0  0  0  0  0
   12.8850   28.0760   27.9450 O   0  0  0  0  0  1  0  0  0  0  0  0
   11.4690   26.9810   26.5780 O   0  0  0  0  0  0  0  0  0  0  0  0
   13.4850   30.4560   22.3590 C   0  0  0  0  0  0  0  0  0  0  0  0
   13.7900   30.8000   21.2490 C   0  0  0  0  0  0  0  0  0  0  0  0
   14.1150   31.2570   19.8810 C   0  0  0  0  0  0  0  0  0  0  0  0
   13.0370   30.7540   18.9100 C   0  0  0  0  0  1  0  0  0  0  0  0
   14.1630   32.7890   19.8490 C   0  0  0  0  0  1  0  0  0  0  0  0
   15.4800   30.6890   19.4690 C   0  0  0  0  0  1  0  0  0  0  0  0
  1  5  2  0  0  0  0
  1  8  1  0  0  0  0
  2  1  1  0  0  0  0
  3  4  1  0  0  0  0
  3  2  2  0  0  0  0
  4  5  1  0  0  0  0
  5 19  1  0  0  0  0
  6  8  1  0  0  0  0
  6  7  2  0  0  0  0
  8 16  1  0  0  0  0
 10  9  1  6  0  0  0
 10 15  1  0  0  0  0
 11 12  1  0  0  0  0
 11 10  1  0  0  0  0
 12 13  1  0  0  0  0
 13  6  1  1  0  0  0
 13 14  1  0  0  0  0
 15 14  1  0  0  0  0
 16 17  1  0  0  0  0
 16 18  1  0  0  0  0
 19 20  1  0  0  0  0
 21 19  2  0  0  0  0
 22  3  1  0  0  0  0
 23 22  3  0  0  0  0
 24 23  1  0  0  0  0
 25 24  1  0  0  0  0
 26 24  1  0  0  0  0
 27 24  1  0  0  0  0
M  END
>  <minimizedAffinity>
-5.27539921

$$$$
