
 OpenBabel09122222393D

 24 27  0  0  0  0  0  0  0  0999 V2000
    7.5130   -5.4540    1.0230 C   0  0  0  0  0  0  0  0  0  0  0  0
    8.2830   -5.2660   -0.1350 C   0  0  0  0  0  3  0  0  0  0  0  0
    9.0480   -4.1100   -0.3450 C   0  0  0  0  0  3  0  0  0  0  0  0
    9.0260   -3.1260    0.6530 C   0  0  0  0  0  0  0  0  0  0  0  0
    8.2670   -3.2790    1.8110 C   0  0  0  0  0  0  0  0  0  0  0  0
    7.5090   -4.4450    2.0040 C   0  0  0  0  0  3  0  0  0  0  0  0
    8.3960   -2.1880    2.6290 N   0  0  0  0  0  0  0  0  0  0  0  0
    9.2100   -1.3600    2.0010 C   0  0  0  0  0  0  0  0  0  0  0  0
    9.6390   -1.8920    0.8000 N   0  0  0  0  0  0  0  0  0  0  0  0
    9.5390   -0.0930    2.5800 C   0  0  0  0  0  0  0  0  0  0  0  0
    9.3490    1.1180    2.0970 N   0  0  0  0  0  0  0  0  0  0  0  0
    9.8350    1.9770    3.0520 C   0  0  0  0  0  3  0  0  0  0  0  0
   10.3260    1.2850    4.1320 C   0  0  0  0  0  3  0  0  0  0  0  0
   10.1280   -0.0310    3.8190 N   0  0  0  0  0  0  0  0  0  0  0  0
   10.3560   -0.8510    4.3670 H   0  0  0  0  0  0  0  0  0  0  0  0
   10.5680   -1.2810   -0.1460 C   0  0  0  0  0  3  0  0  0  0  0  0
   11.4430   -2.3120   -0.8810 C   0  0  0  0  0  2  0  0  0  0  0  0
   12.4330   -1.6300   -1.8230 C   0  0  0  0  0  2  0  0  0  0  0  0
   11.7280   -0.6860   -2.7940 C   0  0  0  0  0  2  0  0  0  0  0  0
   10.8810    0.3490   -2.0590 C   0  0  0  0  0  2  0  0  0  0  0  0
    9.8750   -0.3100   -1.1170 C   0  0  0  0  0  2  0  0  0  0  0  0
    6.5930   -7.1640    2.4010 O   0  0  0  0  0  1  0  0  0  0  0  0
    6.6990   -6.7190    1.2150 C   0  0  0  0  0  0  0  0  0  0  0  0
    6.1840   -7.2410    0.1760 O   0  0  0  0  0  0  0  0  0  0  0  0
  1 23  1  0  0  0  0
  1  6  1  0  0  0  0
  2  1  2  0  0  0  0
  3  2  1  0  0  0  0
  3  4  2  0  0  0  0
  4  9  1  0  0  0  0
  4  5  1  0  0  0  0
  5  6  2  0  0  0  0
  5  7  1  0  0  0  0
  8 10  1  0  0  0  0
  8  7  2  0  0  0  0
  9  8  1  0  0  0  0
 10 14  1  0  0  0  0
 11 10  2  0  0  0  0
 11 12  1  0  0  0  0
 12 13  2  0  0  0  0
 14 13  1  0  0  0  0
 14 15  1  0  0  0  0
 16  9  1  0  0  0  0
 17 16  1  0  0  0  0
 18 17  1  0  0  0  0
 19 20  1  0  0  0  0
 19 18  1  0  0  0  0
 20 21  1  0  0  0  0
 21 16  1  0  0  0  0
 23 22  1  0  0  0  0
 24 23  2  0  0  0  0
M  END
>  <minimizedAffinity>
-6.97536945

$$$$
