
 OpenBabel09122222393D

 24 27  0  0  0  0  0  0  0  0999 V2000
    9.2640   -3.4860    0.8540 C   0  0  0  0  0  0  0  0  0  0  0  0
   10.1900   -2.5810    1.3930 C   0  0  0  0  0  3  0  0  0  0  0  0
   10.0890   -2.1010    2.7060 C   0  0  0  0  0  3  0  0  0  0  0  0
    9.0180   -2.5610    3.4850 C   0  0  0  0  0  0  0  0  0  0  0  0
    8.0790   -3.4550    2.9780 C   0  0  0  0  0  0  0  0  0  0  0  0
    8.1980   -3.9250    1.6610 C   0  0  0  0  0  3  0  0  0  0  0  0
    7.1250   -3.7490    3.9160 N   0  0  0  0  0  0  0  0  0  0  0  0
    7.4480   -3.0510    4.9900 C   0  0  0  0  0  0  0  0  0  0  0  0
    8.6060   -2.3250    4.7870 N   0  0  0  0  0  0  0  0  0  0  0  0
    6.6300   -3.1110    6.1620 C   0  0  0  0  0  0  0  0  0  0  0  0
    6.8090   -3.8060    7.2690 N   0  0  0  0  0  0  0  0  0  0  0  0
    5.7410   -3.4980    8.0750 C   0  0  0  0  0  3  0  0  0  0  0  0
    4.9000   -2.6040    7.4580 C   0  0  0  0  0  3  0  0  0  0  0  0
    5.4790   -2.3650    6.2430 N   0  0  0  0  0  0  0  0  0  0  0  0
    5.1600   -1.7560    5.5000 H   0  0  0  0  0  0  0  0  0  0  0  0
    9.2820   -1.4670    5.7560 C   0  0  0  0  0  3  0  0  0  0  0  0
   10.3050   -2.2260    6.6200 C   0  0  0  0  0  2  0  0  0  0  0  0
   10.9540   -1.3060    7.6520 C   0  0  0  0  0  2  0  0  0  0  0  0
   11.5650   -0.0700    6.9970 C   0  0  0  0  0  2  0  0  0  0  0  0
   10.5410    0.6920    6.1620 C   0  0  0  0  0  2  0  0  0  0  0  0
    9.8850   -0.2070    5.1150 C   0  0  0  0  0  2  0  0  0  0  0  0
    8.4610   -4.6960   -1.0340 O   0  0  0  0  0  1  0  0  0  0  0  0
    9.4070   -3.9830   -0.5720 C   0  0  0  0  0  0  0  0  0  0  0  0
   10.4620   -3.6510   -1.2000 O   0  0  0  0  0  0  0  0  0  0  0  0
  1  2  2  0  0  0  0
  1  6  1  0  0  0  0
  2  3  1  0  0  0  0
  3  4  2  0  0  0  0
  4  9  1  0  0  0  0
  5  4  1  0  0  0  0
  5  7  1  0  0  0  0
  6  5  2  0  0  0  0
  7  8  2  0  0  0  0
  8 10  1  0  0  0  0
  9  8  1  0  0  0  0
  9 16  1  0  0  0  0
 10 14  1  0  0  0  0
 10 11  2  0  0  0  0
 11 12  1  0  0  0  0
 13 12  2  0  0  0  0
 14 13  1  0  0  0  0
 15 14  1  0  0  0  0
 16 17  1  0  0  0  0
 17 18  1  0  0  0  0
 19 18  1  0  0  0  0
 20 19  1  0  0  0  0
 21 16  1  0  0  0  0
 21 20  1  0  0  0  0
 22 23  1  0  0  0  0
 23  1  1  0  0  0  0
 24 23  2  0  0  0  0
M  END
>  <minimizedAffinity>
-6.26635075

$$$$
