
 OpenBabel09122222393D

 24 27  0  0  0  0  0  0  0  0999 V2000
    5.1500   -6.5090    0.7980 C   0  0  0  0  0  0  0  0  0  0  0  0
    4.7710   -7.5710    1.6330 C   0  0  0  0  0  3  0  0  0  0  0  0
    4.2520   -7.3620    2.9180 C   0  0  0  0  0  3  0  0  0  0  0  0
    4.1160   -6.0380    3.3570 C   0  0  0  0  0  0  0  0  0  0  0  0
    4.4890   -4.9620    2.5550 C   0  0  0  0  0  0  0  0  0  0  0  0
    5.0050   -5.1910    1.2700 C   0  0  0  0  0  3  0  0  0  0  0  0
    4.2750   -3.7720    3.2000 N   0  0  0  0  0  0  0  0  0  0  0  0
    3.7850   -4.0870    4.3850 C   0  0  0  0  0  0  0  0  0  0  0  0
    3.6500   -5.4550    4.5250 N   0  0  0  0  0  0  0  0  0  0  0  0
    3.4710   -3.0610    5.3320 C   0  0  0  0  0  0  0  0  0  0  0  0
    2.2940   -2.5870    5.6860 N   0  0  0  0  0  0  0  0  0  0  0  0
    2.5520   -1.6240    6.6300 C   0  0  0  0  0  3  0  0  0  0  0  0
    3.9020   -1.5080    6.8580 C   0  0  0  0  0  3  0  0  0  0  0  0
    4.4740   -2.4300    6.0270 N   0  0  0  0  0  0  0  0  0  0  0  0
    5.4550   -2.6490    5.9080 H   0  0  0  0  0  0  0  0  0  0  0  0
    3.1140   -6.1680    5.6810 C   0  0  0  0  0  3  0  0  0  0  0  0
    3.7510   -5.7250    7.0100 C   0  0  0  0  0  2  0  0  0  0  0  0
    3.1990   -6.5270    8.1870 C   0  0  0  0  0  2  0  0  0  0  0  0
    1.6740   -6.4710    8.2390 C   0  0  0  0  0  2  0  0  0  0  0  0
    1.0470   -6.9350    6.9280 C   0  0  0  0  0  2  0  0  0  0  0  0
    1.5770   -6.1390    5.7360 C   0  0  0  0  0  2  0  0  0  0  0  0
    5.4190   -7.8920   -1.1220 O   0  0  0  0  0  0  0  0  0  0  0  0
    5.7070   -6.7740   -0.5870 C   0  0  0  0  0  0  0  0  0  0  0  0
    6.4210   -5.8620   -1.1120 O   0  0  0  0  0  1  0  0  0  0  0  0
  1  6  2  0  0  0  0
  1  2  1  0  0  0  0
  2  3  2  0  0  0  0
  3  4  1  0  0  0  0
  4  9  1  0  0  0  0
  5  7  1  0  0  0  0
  5  4  2  0  0  0  0
  6  5  1  0  0  0  0
  7  8  2  0  0  0  0
  8  9  1  0  0  0  0
  8 10  1  0  0  0  0
  9 16  1  0  0  0  0
 10 11  2  0  0  0  0
 10 14  1  0  0  0  0
 11 12  1  0  0  0  0
 12 13  2  0  0  0  0
 14 13  1  0  0  0  0
 15 14  1  0  0  0  0
 16 21  1  0  0  0  0
 16 17  1  0  0  0  0
 17 18  1  0  0  0  0
 18 19  1  0  0  0  0
 20 19  1  0  0  0  0
 21 20  1  0  0  0  0
 22 23  2  0  0  0  0
 23  1  1  0  0  0  0
 24 23  1  0  0  0  0
M  END
>  <minimizedAffinity>
-6.57177448

$$$$
