
 OpenBabel09122222393D

 24 27  0  0  0  0  0  0  0  0999 V2000
    5.0550   -6.4770    0.9310 C   0  0  0  0  0  0  0  0  0  0  0  0
    4.5470   -7.5180    1.7240 C   0  0  0  0  0  3  0  0  0  0  0  0
    3.9600   -7.2850    2.9750 C   0  0  0  0  0  3  0  0  0  0  0  0
    3.8870   -5.9590    3.4230 C   0  0  0  0  0  0  0  0  0  0  0  0
    4.3860   -4.9040    2.6620 C   0  0  0  0  0  0  0  0  0  0  0  0
    4.9700   -5.1570    1.4110 C   0  0  0  0  0  3  0  0  0  0  0  0
    4.2130   -3.7090    3.3080 N   0  0  0  0  0  0  0  0  0  0  0  0
    3.6250   -3.9990    4.4540 C   0  0  0  0  0  0  0  0  0  0  0  0
    3.3860   -5.3560    4.5650 N   0  0  0  0  0  0  0  0  0  0  0  0
    3.3200   -2.9630    5.3920 C   0  0  0  0  0  0  0  0  0  0  0  0
    4.0630   -2.4750    6.3650 N   0  0  0  0  0  0  0  0  0  0  0  0
    3.3030   -1.4950    6.9540 C   0  0  0  0  0  3  0  0  0  0  0  0
    2.0830   -1.3800    6.3350 C   0  0  0  0  0  3  0  0  0  0  0  0
    2.1080   -2.3180    5.3410 N   0  0  0  0  0  0  0  0  0  0  0  0
    1.3910   -2.5370    4.6620 H   0  0  0  0  0  0  0  0  0  0  0  0
    2.7250   -6.0400    5.6730 C   0  0  0  0  0  3  0  0  0  0  0  0
    1.2780   -6.4520    5.3490 C   0  0  0  0  0  2  0  0  0  0  0  0
    0.6070   -7.1190    6.5480 C   0  0  0  0  0  2  0  0  0  0  0  0
    1.4310   -8.2930    7.0710 C   0  0  0  0  0  2  0  0  0  0  0  0
    2.8560   -7.8740    7.4140 C   0  0  0  0  0  2  0  0  0  0  0  0
    3.5520   -7.2120    6.2260 C   0  0  0  0  0  2  0  0  0  0  0  0
    6.5150   -5.9160   -0.8650 O   0  0  0  0  0  1  0  0  0  0  0  0
    5.6830   -6.7680   -0.4180 C   0  0  0  0  0  0  0  0  0  0  0  0
    5.3330   -7.8410   -1.0030 O   0  0  0  0  0  0  0  0  0  0  0  0
  1  6  2  0  0  0  0
  1  2  1  0  0  0  0
  2  3  2  0  0  0  0
  3  4  1  0  0  0  0
  4  9  1  0  0  0  0
  5  7  1  0  0  0  0
  5  4  2  0  0  0  0
  6  5  1  0  0  0  0
  7  8  2  0  0  0  0
  8  9  1  0  0  0  0
  8 10  1  0  0  0  0
  9 16  1  0  0  0  0
 10 11  2  0  0  0  0
 11 12  1  0  0  0  0
 13 12  2  0  0  0  0
 14 10  1  0  0  0  0
 14 13  1  0  0  0  0
 15 14  1  0  0  0  0
 16 21  1  0  0  0  0
 17 16  1  0  0  0  0
 17 18  1  0  0  0  0
 18 19  1  0  0  0  0
 19 20  1  0  0  0  0
 21 20  1  0  0  0  0
 22 23  1  0  0  0  0
 23  1  1  0  0  0  0
 24 23  2  0  0  0  0
M  END
>  <minimizedAffinity>
-6.37160015

$$$$
