
 OpenBabel09122222393D

 24 27  0  0  0  0  0  0  0  0999 V2000
    4.6430   -6.3350    1.9660 C   0  0  0  0  0  0  0  0  0  0  0  0
    4.6790   -4.9330    1.9170 C   0  0  0  0  0  3  0  0  0  0  0  0
    4.4660   -4.1390    3.0520 C   0  0  0  0  0  3  0  0  0  0  0  0
    4.2140   -4.7950    4.2650 C   0  0  0  0  0  0  0  0  0  0  0  0
    4.1660   -6.1840    4.3470 C   0  0  0  0  0  0  0  0  0  0  0  0
    4.3830   -6.9620    3.1990 C   0  0  0  0  0  3  0  0  0  0  0  0
    3.8950   -6.5910    5.6270 N   0  0  0  0  0  0  0  0  0  0  0  0
    3.7660   -5.4860    6.3380 C   0  0  0  0  0  0  0  0  0  0  0  0
    3.9710   -4.3620    5.5590 N   0  0  0  0  0  0  0  0  0  0  0  0
    3.4510   -5.5570    7.7310 C   0  0  0  0  0  0  0  0  0  0  0  0
    4.2600   -5.6990    8.7620 N   0  0  0  0  0  0  0  0  0  0  0  0
    3.4490   -5.6990    9.8710 C   0  0  0  0  0  3  0  0  0  0  0  0
    2.1310   -5.5540    9.5150 C   0  0  0  0  0  3  0  0  0  0  0  0
    2.1470   -5.4620    8.1520 N   0  0  0  0  0  0  0  0  0  0  0  0
    1.3670   -5.3430    7.5180 H   0  0  0  0  0  0  0  0  0  0  0  0
    3.9430   -2.9720    6.0050 C   0  0  0  0  0  3  0  0  0  0  0  0
    2.5350   -2.4960    6.4010 C   0  0  0  0  0  2  0  0  0  0  0  0
    2.5400   -1.0250    6.8140 C   0  0  0  0  0  2  0  0  0  0  0  0
    3.5640   -0.7540    7.9130 C   0  0  0  0  0  2  0  0  0  0  0  0
    4.9630   -1.2060    7.5060 C   0  0  0  0  0  2  0  0  0  0  0  0
    4.9840   -2.6780    7.0980 C   0  0  0  0  0  2  0  0  0  0  0  0
    6.0760   -7.5150    0.4750 O   0  0  0  0  0  1  0  0  0  0  0  0
    4.8790   -7.1590    0.7160 C   0  0  0  0  0  0  0  0  0  0  0  0
    3.8650   -7.4340    0.0010 O   0  0  0  0  0  0  0  0  0  0  0  0
  1  6  1  0  0  0  0
  2  1  2  0  0  0  0
  2  3  1  0  0  0  0
  3  4  2  0  0  0  0
  4  5  1  0  0  0  0
  4  9  1  0  0  0  0
  5  7  1  0  0  0  0
  6  5  2  0  0  0  0
  7  8  2  0  0  0  0
  8 10  1  0  0  0  0
  9 16  1  0  0  0  0
  9  8  1  0  0  0  0
 10 14  1  0  0  0  0
 10 11  2  0  0  0  0
 11 12  1  0  0  0  0
 13 12  2  0  0  0  0
 14 13  1  0  0  0  0
 15 14  1  0  0  0  0
 16 17  1  0  0  0  0
 16 21  1  0  0  0  0
 17 18  1  0  0  0  0
 18 19  1  0  0  0  0
 20 19  1  0  0  0  0
 21 20  1  0  0  0  0
 22 23  1  0  0  0  0
 23  1  1  0  0  0  0
 24 23  2  0  0  0  0
M  END
>  <minimizedAffinity>
-6.00791788

$$$$
