
 OpenBabel09122222393D

 24 27  0  0  0  0  0  0  0  0999 V2000
    9.6480   -3.7060    0.3250 C   0  0  0  0  0  0  0  0  0  0  0  0
    9.0140   -4.7880   -0.3060 C   0  0  0  0  0  3  0  0  0  0  0  0
    7.8400   -5.3640    0.1980 C   0  0  0  0  0  3  0  0  0  0  0  0
    7.3010   -4.8200    1.3710 C   0  0  0  0  0  0  0  0  0  0  0  0
    7.9080   -3.7500    2.0250 C   0  0  0  0  0  0  0  0  0  0  0  0
    9.0830   -3.1860    1.5040 C   0  0  0  0  0  3  0  0  0  0  0  0
    7.2070   -3.4010    3.1490 N   0  0  0  0  0  0  0  0  0  0  0  0
    6.1850   -4.2350    3.2110 C   0  0  0  0  0  0  0  0  0  0  0  0
    6.1840   -5.1080    2.1400 N   0  0  0  0  0  0  0  0  0  0  0  0
    5.2560   -4.1580    4.2960 C   0  0  0  0  0  0  0  0  0  0  0  0
    5.1240   -4.9550    5.3380 N   0  0  0  0  0  0  0  0  0  0  0  0
    4.0920   -4.4290    6.0770 C   0  0  0  0  0  3  0  0  0  0  0  0
    3.5900   -3.2970    5.4830 C   0  0  0  0  0  3  0  0  0  0  0  0
    4.3410   -3.1350    4.3530 N   0  0  0  0  0  0  0  0  0  0  0  0
    4.2760   -2.4090    3.6510 H   0  0  0  0  0  0  0  0  0  0  0  0
    5.1950   -6.1430    1.8560 C   0  0  0  0  0  3  0  0  0  0  0  0
    4.9040   -6.3020    0.3530 C   0  0  0  0  0  2  0  0  0  0  0  0
    3.8300   -7.3590    0.1020 C   0  0  0  0  0  2  0  0  0  0  0  0
    4.1880   -8.6900    0.7580 C   0  0  0  0  0  2  0  0  0  0  0  0
    4.4510   -8.5310    2.2520 C   0  0  0  0  0  2  0  0  0  0  0  0
    5.5300   -7.4860    2.5270 C   0  0  0  0  0  2  0  0  0  0  0  0
   10.8140   -2.4890   -1.3570 O   0  0  0  0  0  0  0  0  0  0  0  0
   10.9170   -3.1090   -0.2510 C   0  0  0  0  0  0  0  0  0  0  0  0
   11.9890   -3.2730    0.4120 O   0  0  0  0  0  1  0  0  0  0  0  0
  1  6  1  0  0  0  0
  2  3  1  0  0  0  0
  2  1  2  0  0  0  0
  3  4  2  0  0  0  0
  4  5  1  0  0  0  0
  4  9  1  0  0  0  0
  5  7  1  0  0  0  0
  6  5  2  0  0  0  0
  7  8  2  0  0  0  0
  8 10  1  0  0  0  0
  9  8  1  0  0  0  0
 10 14  1  0  0  0  0
 10 11  2  0  0  0  0
 11 12  1  0  0  0  0
 13 12  2  0  0  0  0
 14 13  1  0  0  0  0
 15 14  1  0  0  0  0
 16  9  1  0  0  0  0
 16 21  1  0  0  0  0
 17 16  1  0  0  0  0
 18 17  1  0  0  0  0
 18 19  1  0  0  0  0
 19 20  1  0  0  0  0
 20 21  1  0  0  0  0
 22 23  2  0  0  0  0
 23  1  1  0  0  0  0
 23 24  1  0  0  0  0
M  END
>  <minimizedAffinity>
-7.22343397

$$$$
