
 OpenBabel09122222393D

 24 27  0  0  0  0  0  0  0  0999 V2000
    9.3250   -3.8150    0.3750 C   0  0  0  0  0  0  0  0  0  0  0  0
    8.8470   -2.9820    1.3990 C   0  0  0  0  0  3  0  0  0  0  0  0
    7.7330   -3.3210    2.1790 C   0  0  0  0  0  3  0  0  0  0  0  0
    7.0960   -4.5400    1.9080 C   0  0  0  0  0  0  0  0  0  0  0  0
    7.5420   -5.3860    0.8950 C   0  0  0  0  0  0  0  0  0  0  0  0
    8.6600   -5.0290    0.1250 C   0  0  0  0  0  3  0  0  0  0  0  0
    6.7580   -6.5060    0.8120 N   0  0  0  0  0  0  0  0  0  0  0  0
    5.8330   -6.3700    1.7440 C   0  0  0  0  0  0  0  0  0  0  0  0
    6.0050   -5.1970    2.4540 N   0  0  0  0  0  0  0  0  0  0  0  0
    4.8240   -7.3700    1.9110 C   0  0  0  0  0  0  0  0  0  0  0  0
    4.4640   -8.0170    3.0010 N   0  0  0  0  0  0  0  0  0  0  0  0
    3.4480   -8.8560    2.6140 C   0  0  0  0  0  3  0  0  0  0  0  0
    3.1810   -8.7200    1.2740 C   0  0  0  0  0  3  0  0  0  0  0  0
    4.0610   -7.7700    0.8400 N   0  0  0  0  0  0  0  0  0  0  0  0
    4.1730   -7.3910   -0.0920 H   0  0  0  0  0  0  0  0  0  0  0  0
    5.1990   -4.7270    3.5770 C   0  0  0  0  0  3  0  0  0  0  0  0
    6.0010   -3.8840    4.5830 C   0  0  0  0  0  2  0  0  0  0  0  0
    5.1350   -3.4540    5.7660 C   0  0  0  0  0  2  0  0  0  0  0  0
    3.8690   -2.7380    5.3030 C   0  0  0  0  0  2  0  0  0  0  0  0
    3.0640   -3.5880    4.3250 C   0  0  0  0  0  2  0  0  0  0  0  0
    3.9080   -4.0220    3.1280 C   0  0  0  0  0  2  0  0  0  0  0  0
   11.5920   -4.1020   -0.2940 O   0  0  0  0  0  1  0  0  0  0  0  0
   10.5340   -3.4140   -0.4470 C   0  0  0  0  0  0  0  0  0  0  0  0
   10.4020   -2.4200   -1.2290 O   0  0  0  0  0  0  0  0  0  0  0  0
  1  2  1  0  0  0  0
  2  3  2  0  0  0  0
  4  3  1  0  0  0  0
  4  9  1  0  0  0  0
  5  4  2  0  0  0  0
  6  1  2  0  0  0  0
  6  5  1  0  0  0  0
  7  5  1  0  0  0  0
  7  8  2  0  0  0  0
  8 10  1  0  0  0  0
  8  9  1  0  0  0  0
  9 16  1  0  0  0  0
 10 11  2  0  0  0  0
 12 11  1  0  0  0  0
 13 12  2  0  0  0  0
 14 13  1  0  0  0  0
 14 10  1  0  0  0  0
 15 14  1  0  0  0  0
 16 17  1  0  0  0  0
 17 18  1  0  0  0  0
 19 18  1  0  0  0  0
 20 19  1  0  0  0  0
 21 16  1  0  0  0  0
 21 20  1  0  0  0  0
 23 22  1  0  0  0  0
 23  1  1  0  0  0  0
 24 23  2  0  0  0  0
M  END
>  <minimizedAffinity>
-6.77528191

$$$$
