
 OpenBabel09122222393D

 25 27  0  0  1  0  0  0  0  0999 V2000
    3.1500   -4.9130    6.8990 C   0  0  1  0  0  0  0  0  0  0  0  0
    4.4880   -5.5630    7.2600 C   0  0  0  0  0  1  0  0  0  0  0  0
    3.3370   -3.4170    6.6080 C   0  0  1  0  0  3  0  0  0  0  0  0
    2.0490   -3.0830    5.8730 C   0  0  2  0  0  3  0  0  0  0  0  0
    1.7970   -4.2100    5.0050 O   0  0  0  0  0  0  0  0  0  0  0  0
    2.4500   -5.3730    5.5910 C   0  0  1  0  0  3  0  0  0  0  0  0
    3.3080   -5.9640    4.5850 N   0  0  0  0  0  0  0  0  0  0  0  0
    3.2570   -7.2370    4.0810 C   0  0  0  0  0  3  0  0  0  0  0  0
    4.1720   -7.4370    3.1560 N   0  0  0  0  0  0  0  0  0  0  0  0
    4.8670   -6.2460    3.0800 C   0  0  0  0  0  0  0  0  0  0  0  0
    5.9540   -5.8250    2.2960 C   0  0  0  0  0  0  0  0  0  0  0  0
    6.5740   -6.6350    1.3740 N   0  0  0  0  0  0  0  0  0  0  0  0
    6.4120   -4.5620    2.4560 N   0  0  0  0  0  0  0  0  0  0  0  0
    5.8010   -3.7660    3.3600 C   0  0  0  0  0  3  0  0  0  0  0  0
    4.7530   -4.0540    4.1600 N   0  0  0  0  0  0  0  0  0  0  0  0
    4.3450   -5.3190    3.9660 C   0  0  0  0  0  0  0  0  0  0  0  0
    6.2520   -7.5850    1.2570 H   0  0  0  0  0  0  0  0  0  0  0  0
    7.3580   -6.2640    0.8610 H   0  0  0  0  0  0  0  0  0  0  0  0
    1.5970   -6.2190    8.2520 C   0  0  0  0  0  1  0  0  0  0  0  0
    2.2410   -4.9680    8.0350 O   0  0  0  0  0  0  0  0  0  0  0  0
    3.5100   -2.6480    7.7900 O   0  0  0  0  0  0  0  0  0  0  0  0
    2.9400   -3.0660    8.4680 H   0  0  0  0  0  0  0  0  0  0  0  0
    2.1450   -1.8100    5.0400 C   0  0  0  0  0  2  0  0  0  0  0  0
    0.8350   -1.3070    4.7770 O   0  0  0  0  0  0  0  0  0  0  0  0
    0.3040   -2.0690    4.4780 H   0  0  0  0  0  0  0  0  0  0  0  0
  1  2  1  1  0  0  0
  1 20  1  0  0  0  0
  3  1  1  0  0  0  0
  3 21  1  1  0  0  0
  4 23  1  6  0  0  0
  4  3  1  0  0  0  0
  5  6  1  0  0  0  0
  5  4  1  0  0  0  0
  6  7  1  6  0  0  0
  6  1  1  0  0  0  0
  8  7  1  0  0  0  0
  9  8  2  0  0  0  0
 10  9  1  0  0  0  0
 10 16  1  0  0  0  0
 11 13  1  0  0  0  0
 11 10  2  0  0  0  0
 12 11  1  0  0  0  0
 13 14  2  0  0  0  0
 14 15  1  0  0  0  0
 16 15  2  0  0  0  0
 16  7  1  0  0  0  0
 17 12  1  0  0  0  0
 18 12  1  0  0  0  0
 20 19  1  0  0  0  0
 21 22  1  0  0  0  0
 24 23  1  0  0  0  0
 25 24  1  0  0  0  0
M  END
>  <minimizedAffinity>
-3.44360089

$$$$
