
 OpenBabel09122222393D

 25 27  0  0  1  0  0  0  0  0999 V2000
    2.9700   -4.8780    6.2610 C   0  0  1  0  0  0  0  0  0  0  0  0
    4.2880   -5.5280    6.6910 C   0  0  0  0  0  1  0  0  0  0  0  0
    2.9120   -3.4160    6.7250 C   0  0  1  0  0  3  0  0  0  0  0  0
    1.7950   -2.8610    5.8560 C   0  0  2  0  0  3  0  0  0  0  0  0
    1.9920   -3.4520    4.5530 O   0  0  0  0  0  0  0  0  0  0  0  0
    2.7090   -4.7060    4.7390 C   0  0  1  0  0  3  0  0  0  0  0  0
    3.8840   -4.6850    3.8920 N   0  0  0  0  0  0  0  0  0  0  0  0
    4.8810   -3.7470    3.8620 C   0  0  0  0  0  3  0  0  0  0  0  0
    5.8170   -4.0510    2.9870 N   0  0  0  0  0  0  0  0  0  0  0  0
    5.3890   -5.2260    2.4030 C   0  0  0  0  0  0  0  0  0  0  0  0
    5.9350   -6.0470    1.4020 C   0  0  0  0  0  0  0  0  0  0  0  0
    7.1230   -5.7710    0.7690 N   0  0  0  0  0  0  0  0  0  0  0  0
    5.2590   -7.1650    1.0460 N   0  0  0  0  0  0  0  0  0  0  0  0
    4.0930   -7.4370    1.6700 C   0  0  0  0  0  3  0  0  0  0  0  0
    3.4760   -6.7330    2.6430 N   0  0  0  0  0  0  0  0  0  0  0  0
    4.1850   -5.6340    2.9520 C   0  0  0  0  0  0  0  0  0  0  0  0
    7.6290   -4.9310    1.0140 H   0  0  0  0  0  0  0  0  0  0  0  0
    7.4410   -6.4010    0.0500 H   0  0  0  0  0  0  0  0  0  0  0  0
    1.4590   -6.7890    6.3800 C   0  0  0  0  0  1  0  0  0  0  0  0
    1.8480   -5.5310    6.9210 O   0  0  0  0  0  0  0  0  0  0  0  0
    2.6390   -3.2930    8.1130 O   0  0  0  0  0  0  0  0  0  0  0  0
    2.0220   -4.0220    8.3310 H   0  0  0  0  0  0  0  0  0  0  0  0
    1.8250   -1.3410    5.7350 C   0  0  0  0  0  2  0  0  0  0  0  0
    1.8090   -0.7560    7.0370 O   0  0  0  0  0  0  0  0  0  0  0  0
    1.1030   -1.2100    7.5350 H   0  0  0  0  0  0  0  0  0  0  0  0
  1  2  1  1  0  0  0
  1  3  1  0  0  0  0
  1 20  1  0  0  0  0
  3 21  1  1  0  0  0
  4 23  1  6  0  0  0
  4  3  1  0  0  0  0
  5  6  1  0  0  0  0
  5  4  1  0  0  0  0
  6  7  1  6  0  0  0
  6  1  1  0  0  0  0
  8  7  1  0  0  0  0
  9  8  2  0  0  0  0
 10 16  1  0  0  0  0
 10  9  1  0  0  0  0
 11 10  2  0  0  0  0
 12 17  1  0  0  0  0
 12 11  1  0  0  0  0
 13 11  1  0  0  0  0
 13 14  2  0  0  0  0
 14 15  1  0  0  0  0
 15 16  2  0  0  0  0
 16  7  1  0  0  0  0
 18 12  1  0  0  0  0
 19 20  1  0  0  0  0
 21 22  1  0  0  0  0
 23 24  1  0  0  0  0
 24 25  1  0  0  0  0
M  END
>  <minimizedAffinity>
-4.20457697

$$$$
