
 OpenBabel09122222393D

 25 27  0  0  1  0  0  0  0  0999 V2000
    3.2390   -6.1860    4.7050 C   0  0  1  0  0  0  0  0  0  0  0  0
    1.7090   -6.1410    4.7220 C   0  0  0  0  0  1  0  0  0  0  0  0
    3.7640   -6.1790    3.2620 C   0  0  1  0  0  3  0  0  0  0  0  0
    5.2190   -5.7890    3.4650 C   0  0  2  0  0  3  0  0  0  0  0  0
    5.2060   -4.7730    4.4910 O   0  0  0  0  0  0  0  0  0  0  0  0
    4.0070   -4.9700    5.2930 C   0  0  1  0  0  3  0  0  0  0  0  0
    3.2780   -3.7180    5.3340 N   0  0  0  0  0  0  0  0  0  0  0  0
    2.3930   -3.2320    4.4090 C   0  0  0  0  0  3  0  0  0  0  0  0
    1.8890   -2.0710    4.7720 N   0  0  0  0  0  0  0  0  0  0  0  0
    2.5020   -1.7790    5.9740 C   0  0  0  0  0  0  0  0  0  0  0  0
    2.3990   -0.6900    6.8570 C   0  0  0  0  0  0  0  0  0  0  0  0
    1.5740    0.3860    6.6290 N   0  0  0  0  0  0  0  0  0  0  0  0
    3.1450   -0.7030    7.9850 N   0  0  0  0  0  0  0  0  0  0  0  0
    3.9530   -1.7620    8.2100 C   0  0  0  0  0  3  0  0  0  0  0  0
    4.1310   -2.8610    7.4440 N   0  0  0  0  0  0  0  0  0  0  0  0
    3.3730   -2.7920    6.3380 C   0  0  0  0  0  0  0  0  0  0  0  0
    1.0240    0.4150    5.7820 H   0  0  0  0  0  0  0  0  0  0  0  0
    1.5680    1.1350    7.3020 H   0  0  0  0  0  0  0  0  0  0  0  0
    3.9170   -7.4390    6.6840 C   0  0  0  0  0  1  0  0  0  0  0  0
    3.7130   -7.4390    5.2750 O   0  0  0  0  0  0  0  0  0  0  0  0
    3.6180   -7.4380    2.6210 O   0  0  0  0  0  0  0  0  0  0  0  0
    3.7670   -8.1120    3.3160 H   0  0  0  0  0  0  0  0  0  0  0  0
    5.8750   -5.2340    2.2050 C   0  0  0  0  0  2  0  0  0  0  0  0
    5.5140   -6.0370    1.0820 O   0  0  0  0  0  0  0  0  0  0  0  0
    5.6470   -6.9650    1.3540 H   0  0  0  0  0  0  0  0  0  0  0  0
  1  2  1  1  0  0  0
  1 20  1  0  0  0  0
  1  6  1  0  0  0  0
  3 21  1  1  0  0  0
  3  4  1  0  0  0  0
  3  1  1  0  0  0  0
  4 23  1  6  0  0  0
  4  5  1  0  0  0  0
  5  6  1  0  0  0  0
  6  7  1  6  0  0  0
  7 16  1  0  0  0  0
  8  9  2  0  0  0  0
  8  7  1  0  0  0  0
  9 10  1  0  0  0  0
 10 16  2  0  0  0  0
 10 11  1  0  0  0  0
 11 13  2  0  0  0  0
 12 11  1  0  0  0  0
 12 18  1  0  0  0  0
 13 14  1  0  0  0  0
 15 14  2  0  0  0  0
 16 15  1  0  0  0  0
 17 12  1  0  0  0  0
 20 19  1  0  0  0  0
 21 22  1  0  0  0  0
 24 25  1  0  0  0  0
 24 23  1  0  0  0  0
M  END
>  <minimizedAffinity>
-3.22182322

$$$$
