
 OpenBabel09122218003D

 25 27  0  0  1  0  0  0  0  0999 V2000
    4.1940   -3.7880    4.9820 C   0  0  1  0  0  0  0  0  0  0  0  0
    3.8370   -3.0540    3.6870 C   0  0  0  0  0  1  0  0  0  0  0  0
    2.9230   -4.1710    5.7540 C   0  0  1  0  0  3  0  0  0  0  0  0
    3.4520   -5.2240    6.7150 C   0  0  2  0  0  3  0  0  0  0  0  0
    4.3860   -6.0120    5.9460 O   0  0  0  0  0  0  0  0  0  0  0  0
    4.8840   -5.1760    4.8630 C   0  0  1  0  0  3  0  0  0  0  0  0
    4.6780   -5.8820    3.6150 N   0  0  0  0  0  0  0  0  0  0  0  0
    3.6760   -6.7620    3.3040 C   0  0  0  0  0  3  0  0  0  0  0  0
    3.7730   -7.2030    2.0670 N   0  0  0  0  0  0  0  0  0  0  0  0
    4.9100   -6.6010    1.5650 C   0  0  0  0  0  0  0  0  0  0  0  0
    5.5500   -6.6670    0.3160 C   0  0  0  0  0  0  0  0  0  0  0  0
    5.0910   -7.4390   -0.7250 N   0  0  0  0  0  0  0  0  0  0  0  0
    6.6720   -5.9330    0.1280 N   0  0  0  0  0  0  0  0  0  0  0  0
    7.1220   -5.1730    1.1500 C   0  0  0  0  0  3  0  0  0  0  0  0
    6.5920   -5.0240    2.3830 N   0  0  0  0  0  0  0  0  0  0  0  0
    5.4880   -5.7770    2.5160 C   0  0  0  0  0  0  0  0  0  0  0  0
    4.2640   -8.0030   -0.5920 H   0  0  0  0  0  0  0  0  0  0  0  0
    5.6150   -7.4450   -1.5840 H   0  0  0  0  0  0  0  0  0  0  0  0
    6.3190   -3.1850    6.0170 C   0  0  0  0  0  1  0  0  0  0  0  0
    4.9300   -2.9060    5.8760 O   0  0  0  0  0  0  0  0  0  0  0  0
    2.3360   -3.0640    6.4230 O   0  0  0  0  0  0  0  0  0  0  0  0
    3.0820   -2.5060    6.7240 H   0  0  0  0  0  0  0  0  0  0  0  0
    2.3600   -6.1300    7.2740 C   0  0  0  0  0  2  0  0  0  0  0  0
    1.3650   -6.3570    6.2750 O   0  0  0  0  0  0  0  0  0  0  0  0
    1.1520   -5.4830    5.8970 H   0  0  0  0  0  0  0  0  0  0  0  0
  1  2  1  6  0  0  0
  1  3  1  0  0  0  0
  1 20  1  0  0  0  0
  3 21  1  1  0  0  0
  3  4  1  0  0  0  0
  4 23  1  6  0  0  0
  5  4  1  0  0  0  0
  6  7  1  6  0  0  0
  6  1  1  0  0  0  0
  6  5  1  0  0  0  0
  8  7  1  0  0  0  0
  9  8  2  0  0  0  0
 10  9  1  0  0  0  0
 10 16  1  0  0  0  0
 11 10  2  0  0  0  0
 12 17  1  0  0  0  0
 12 11  1  0  0  0  0
 13 11  1  0  0  0  0
 13 14  2  0  0  0  0
 14 15  1  0  0  0  0
 15 16  2  0  0  0  0
 16  7  1  0  0  0  0
 18 12  1  0  0  0  0
 20 19  1  0  0  0  0
 21 22  1  0  0  0  0
 24 23  1  0  0  0  0
 25 24  1  0  0  0  0
M  END
>  <minimizedAffinity>
-4.97972631

$$$$

 OpenBabel09122218003D

 25 27  0  0  1  0  0  0  0  0999 V2000
    4.7010   -3.8450    6.7570 C   0  0  1  0  0  0  0  0  0  0  0  0
    6.2240   -3.6900    6.7880 C   0  0  0  0  0  1  0  0  0  0  0  0
    4.0220   -2.4790    6.5880 C   0  0  1  0  0  3  0  0  0  0  0  0
    2.6240   -2.8820    6.1500 C   0  0  2  0  0  3  0  0  0  0  0  0
    2.8090   -3.9850    5.2370 O   0  0  0  0  0  0  0  0  0  0  0  0
    4.0760   -4.6240    5.5660 C   0  0  1  0  0  3  0  0  0  0  0  0
    4.8760   -4.6900    4.3610 N   0  0  0  0  0  0  0  0  0  0  0  0
    5.8670   -3.8320    3.9620 C   0  0  0  0  0  3  0  0  0  0  0  0
    6.4110   -4.2030    2.8220 N   0  0  0  0  0  0  0  0  0  0  0  0
    5.7180   -5.3390    2.4520 C   0  0  0  0  0  0  0  0  0  0  0  0
    5.8150   -6.1950    1.3420 C   0  0  0  0  0  0  0  0  0  0  0  0
    6.7230   -6.0090    0.3260 N   0  0  0  0  0  0  0  0  0  0  0  0
    4.9760   -7.2550    1.2700 N   0  0  0  0  0  0  0  0  0  0  0  0
    4.0860   -7.4390    2.2700 C   0  0  0  0  0  3  0  0  0  0  0  0
    3.9050   -6.6930    3.3810 N   0  0  0  0  0  0  0  0  0  0  0  0
    4.7560   -5.6550    3.3970 C   0  0  0  0  0  0  0  0  0  0  0  0
    7.3430   -5.2130    0.3600 H   0  0  0  0  0  0  0  0  0  0  0  0
    6.7200   -6.6580   -0.4440 H   0  0  0  0  0  0  0  0  0  0  0  0
    4.0240   -5.7620    8.1050 C   0  0  0  0  0  1  0  0  0  0  0  0
    4.2200   -4.3530    8.0340 O   0  0  0  0  0  0  0  0  0  0  0  0
    4.0230   -1.7160    7.7870 O   0  0  0  0  0  0  0  0  0  0  0  0
    3.9120   -2.3610    8.5150 H   0  0  0  0  0  0  0  0  0  0  0  0
    1.8670   -1.7600    5.4460 C   0  0  0  0  0  2  0  0  0  0  0  0
    1.5970   -0.7080    6.3730 O   0  0  0  0  0  0  0  0  0  0  0  0
    1.2390   -1.1330    7.1750 H   0  0  0  0  0  0  0  0  0  0  0  0
  1  2  1  6  0  0  0
  1 20  1  0  0  0  0
  3  1  1  0  0  0  0
  3 21  1  1  0  0  0
  4 23  1  6  0  0  0
  4  3  1  0  0  0  0
  5  6  1  0  0  0  0
  5  4  1  0  0  0  0
  6  7  1  6  0  0  0
  6  1  1  0  0  0  0
  8  7  1  0  0  0  0
  9  8  2  0  0  0  0
 10  9  1  0  0  0  0
 10 16  1  0  0  0  0
 11 10  2  0  0  0  0
 12 17  1  0  0  0  0
 12 11  1  0  0  0  0
 13 11  1  0  0  0  0
 13 14  2  0  0  0  0
 14 15  1  0  0  0  0
 15 16  2  0  0  0  0
 16  7  1  0  0  0  0
 18 12  1  0  0  0  0
 20 19  1  0  0  0  0
 21 22  1  0  0  0  0
 23 24  1  0  0  0  0
 24 25  1  0  0  0  0
M  END
>  <minimizedAffinity>
-4.87396622

$$$$

 OpenBabel09122218003D

 25 27  0  0  1  0  0  0  0  0999 V2000
    4.0130   -3.0420    6.6180 C   0  0  1  0  0  0  0  0  0  0  0  0
    3.2700   -2.2990    5.5050 C   0  0  0  0  0  1  0  0  0  0  0  0
    3.1210   -4.1310    7.2310 C   0  0  1  0  0  3  0  0  0  0  0  0
    4.1410   -4.9940    7.9550 C   0  0  2  0  0  3  0  0  0  0  0  0
    5.2800   -5.0680    7.0710 O   0  0  0  0  0  0  0  0  0  0  0  0
    5.2580   -3.8840    6.2230 C   0  0  1  0  0  3  0  0  0  0  0  0
    5.3200   -4.3150    4.8410 N   0  0  0  0  0  0  0  0  0  0  0  0
    5.9860   -3.7180    3.8040 C   0  0  0  0  0  3  0  0  0  0  0  0
    5.8530   -4.3910    2.6810 N   0  0  0  0  0  0  0  0  0  0  0  0
    5.0380   -5.4590    3.0010 C   0  0  0  0  0  0  0  0  0  0  0  0
    4.5260   -6.5270    2.2460 C   0  0  0  0  0  0  0  0  0  0  0  0
    4.7840   -6.6920    0.9060 N   0  0  0  0  0  0  0  0  0  0  0  0
    3.7420   -7.4380    2.8680 N   0  0  0  0  0  0  0  0  0  0  0  0
    3.4910   -7.2780    4.1850 C   0  0  0  0  0  3  0  0  0  0  0  0
    3.9280   -6.3030    5.0110 N   0  0  0  0  0  0  0  0  0  0  0  0
    4.6930   -5.4260    4.3420 C   0  0  0  0  0  0  0  0  0  0  0  0
    5.3540   -6.0100    0.4260 H   0  0  0  0  0  0  0  0  0  0  0  0
    4.3670   -7.4760    0.4300 H   0  0  0  0  0  0  0  0  0  0  0  0
    5.4940   -1.3520    7.5670 C   0  0  0  0  0  1  0  0  0  0  0  0
    4.3140   -2.1350    7.7170 O   0  0  0  0  0  0  0  0  0  0  0  0
    2.1330   -3.6000    8.1040 O   0  0  0  0  0  0  0  0  0  0  0  0
    2.5530   -2.8390    8.5530 H   0  0  0  0  0  0  0  0  0  0  0  0
    3.6350   -6.4020    8.2510 C   0  0  0  0  0  2  0  0  0  0  0  0
    4.6660   -7.3510    7.9780 O   0  0  0  0  0  0  0  0  0  0  0  0
    5.0280   -7.1180    7.1020 H   0  0  0  0  0  0  0  0  0  0  0  0
  1  2  1  6  0  0  0
  1  3  1  0  0  0  0
  1 20  1  0  0  0  0
  3  4  1  0  0  0  0
  3 21  1  1  0  0  0
  4 23  1  6  0  0  0
  5  4  1  0  0  0  0
  6  7  1  6  0  0  0
  6  1  1  0  0  0  0
  6  5  1  0  0  0  0
  8  7  1  0  0  0  0
  9 10  1  0  0  0  0
  9  8  2  0  0  0  0
 10 16  1  0  0  0  0
 11 13  1  0  0  0  0
 11 10  2  0  0  0  0
 12 11  1  0  0  0  0
 13 14  2  0  0  0  0
 14 15  1  0  0  0  0
 16  7  1  0  0  0  0
 16 15  2  0  0  0  0
 17 12  1  0  0  0  0
 18 12  1  0  0  0  0
 19 20  1  0  0  0  0
 21 22  1  0  0  0  0
 24 23  1  0  0  0  0
 25 24  1  0  0  0  0
M  END
>  <minimizedAffinity>
-4.21567678

$$$$

 OpenBabel09122218003D

 25 27  0  0  1  0  0  0  0  0999 V2000
    2.9700   -4.8780    6.2610 C   0  0  1  0  0  0  0  0  0  0  0  0
    4.2880   -5.5280    6.6910 C   0  0  0  0  0  1  0  0  0  0  0  0
    2.9120   -3.4160    6.7250 C   0  0  1  0  0  3  0  0  0  0  0  0
    1.7950   -2.8610    5.8560 C   0  0  2  0  0  3  0  0  0  0  0  0
    1.9920   -3.4520    4.5530 O   0  0  0  0  0  0  0  0  0  0  0  0
    2.7090   -4.7060    4.7390 C   0  0  1  0  0  3  0  0  0  0  0  0
    3.8840   -4.6850    3.8920 N   0  0  0  0  0  0  0  0  0  0  0  0
    4.8810   -3.7470    3.8620 C   0  0  0  0  0  3  0  0  0  0  0  0
    5.8170   -4.0510    2.9870 N   0  0  0  0  0  0  0  0  0  0  0  0
    5.3890   -5.2260    2.4030 C   0  0  0  0  0  0  0  0  0  0  0  0
    5.9350   -6.0470    1.4020 C   0  0  0  0  0  0  0  0  0  0  0  0
    7.1230   -5.7710    0.7690 N   0  0  0  0  0  0  0  0  0  0  0  0
    5.2590   -7.1650    1.0460 N   0  0  0  0  0  0  0  0  0  0  0  0
    4.0930   -7.4370    1.6700 C   0  0  0  0  0  3  0  0  0  0  0  0
    3.4760   -6.7330    2.6430 N   0  0  0  0  0  0  0  0  0  0  0  0
    4.1850   -5.6340    2.9520 C   0  0  0  0  0  0  0  0  0  0  0  0
    7.6290   -4.9310    1.0140 H   0  0  0  0  0  0  0  0  0  0  0  0
    7.4410   -6.4010    0.0500 H   0  0  0  0  0  0  0  0  0  0  0  0
    1.4590   -6.7890    6.3800 C   0  0  0  0  0  1  0  0  0  0  0  0
    1.8480   -5.5310    6.9210 O   0  0  0  0  0  0  0  0  0  0  0  0
    2.6390   -3.2930    8.1130 O   0  0  0  0  0  0  0  0  0  0  0  0
    2.0220   -4.0220    8.3310 H   0  0  0  0  0  0  0  0  0  0  0  0
    1.8250   -1.3410    5.7350 C   0  0  0  0  0  2  0  0  0  0  0  0
    1.8090   -0.7560    7.0370 O   0  0  0  0  0  0  0  0  0  0  0  0
    1.1030   -1.2100    7.5350 H   0  0  0  0  0  0  0  0  0  0  0  0
  1  2  1  1  0  0  0
  1  3  1  0  0  0  0
  1 20  1  0  0  0  0
  3 21  1  1  0  0  0
  4 23  1  6  0  0  0
  4  3  1  0  0  0  0
  5  6  1  0  0  0  0
  5  4  1  0  0  0  0
  6  7  1  6  0  0  0
  6  1  1  0  0  0  0
  8  7  1  0  0  0  0
  9  8  2  0  0  0  0
 10 16  1  0  0  0  0
 10  9  1  0  0  0  0
 11 10  2  0  0  0  0
 12 17  1  0  0  0  0
 12 11  1  0  0  0  0
 13 11  1  0  0  0  0
 13 14  2  0  0  0  0
 14 15  1  0  0  0  0
 15 16  2  0  0  0  0
 16  7  1  0  0  0  0
 18 12  1  0  0  0  0
 19 20  1  0  0  0  0
 21 22  1  0  0  0  0
 23 24  1  0  0  0  0
 24 25  1  0  0  0  0
M  END
>  <minimizedAffinity>
-4.20457697

$$$$

 OpenBabel09122218003D

 25 27  0  0  1  0  0  0  0  0999 V2000
    3.4000   -3.6220    5.5420 C   0  0  1  0  0  0  0  0  0  0  0  0
    2.2280   -3.6630    4.5590 C   0  0  0  0  0  1  0  0  0  0  0  0
    3.1240   -4.5280    6.7510 C   0  0  1  0  0  3  0  0  0  0  0  0
    4.5150   -4.6870    7.3410 C   0  0  2  0  0  3  0  0  0  0  0  0
    5.3990   -4.8360    6.2090 O   0  0  0  0  0  0  0  0  0  0  0  0
    4.7660   -4.1920    5.0660 C   0  0  1  0  0  3  0  0  0  0  0  0
    4.7110   -5.1490    3.9800 N   0  0  0  0  0  0  0  0  0  0  0  0
    3.8580   -6.2100    3.8390 C   0  0  0  0  0  3  0  0  0  0  0  0
    4.0650   -6.8630    2.7150 N   0  0  0  0  0  0  0  0  0  0  0  0
    5.1230   -6.2090    2.1150 C   0  0  0  0  0  0  0  0  0  0  0  0
    5.8150   -6.4200    0.9100 C   0  0  0  0  0  0  0  0  0  0  0  0
    5.5110   -7.4380    0.0380 N   0  0  0  0  0  0  0  0  0  0  0  0
    6.8270   -5.5800    0.5930 N   0  0  0  0  0  0  0  0  0  0  0  0
    7.1240   -4.5790    1.4490 C   0  0  0  0  0  3  0  0  0  0  0  0
    6.5310   -4.2740    2.6230 N   0  0  0  0  0  0  0  0  0  0  0  0
    5.5410   -5.1410    2.8910 C   0  0  0  0  0  0  0  0  0  0  0  0
    4.7680   -8.0820    0.2710 H   0  0  0  0  0  0  0  0  0  0  0  0
    6.0640   -7.5340   -0.7980 H   0  0  0  0  0  0  0  0  0  0  0  0
    2.3450   -1.5350    6.2330 C   0  0  0  0  0  1  0  0  0  0  0  0
    3.5480   -2.2840    6.0960 O   0  0  0  0  0  0  0  0  0  0  0  0
    2.2020   -3.9510    7.6660 O   0  0  0  0  0  0  0  0  0  0  0  0
    2.3850   -2.9890    7.6590 H   0  0  0  0  0  0  0  0  0  0  0  0
    4.6460   -5.9040    8.2520 C   0  0  0  0  0  2  0  0  0  0  0  0
    4.0460   -7.0380    7.6270 O   0  0  0  0  0  0  0  0  0  0  0  0
    3.1760   -6.7440    7.2990 H   0  0  0  0  0  0  0  0  0  0  0  0
  1  2  1  6  0  0  0
  1 20  1  0  0  0  0
  1  3  1  0  0  0  0
  3  4  1  0  0  0  0
  3 21  1  1  0  0  0
  4 23  1  1  0  0  0
  5  4  1  0  0  0  0
  6  7  1  6  0  0  0
  6  1  1  0  0  0  0
  6  5  1  0  0  0  0
  8  7  1  0  0  0  0
  9  8  2  0  0  0  0
 10  9  1  0  0  0  0
 10 16  1  0  0  0  0
 11 10  2  0  0  0  0
 12 17  1  0  0  0  0
 12 11  1  0  0  0  0
 13 11  1  0  0  0  0
 13 14  2  0  0  0  0
 14 15  1  0  0  0  0
 15 16  2  0  0  0  0
 16  7  1  0  0  0  0
 18 12  1  0  0  0  0
 20 19  1  0  0  0  0
 22 21  1  0  0  0  0
 24 23  1  0  0  0  0
 25 24  1  0  0  0  0
M  END
>  <minimizedAffinity>
-4.14707804

$$$$

 OpenBabel09122218003D

 25 27  0  0  1  0  0  0  0  0999 V2000
    3.2130   -3.8490    4.8780 C   0  0  1  0  0  0  0  0  0  0  0  0
    3.1720   -2.7660    3.7970 C   0  0  0  0  0  1  0  0  0  0  0  0
    2.1680   -4.9370    4.5920 C   0  0  1  0  0  3  0  0  0  0  0  0
    2.6560   -6.0730    5.4760 C   0  0  2  0  0  3  0  0  0  0  0  0
    4.0950   -6.0640    5.3550 O   0  0  0  0  0  0  0  0  0  0  0  0
    4.5000   -4.7130    4.9910 C   0  0  1  0  0  3  0  0  0  0  0  0
    5.3190   -4.7910    3.7990 N   0  0  0  0  0  0  0  0  0  0  0  0
    6.3990   -4.0160    3.4710 C   0  0  0  0  0  3  0  0  0  0  0  0
    6.9310   -4.3750    2.3210 N   0  0  0  0  0  0  0  0  0  0  0  0
    6.1380   -5.4110    1.8700 C   0  0  0  0  0  0  0  0  0  0  0  0
    6.1760   -6.2080    0.7130 C   0  0  0  0  0  0  0  0  0  0  0  0
    7.1220   -6.0570   -0.2720 N   0  0  0  0  0  0  0  0  0  0  0  0
    5.2370   -7.1710    0.5630 N   0  0  0  0  0  0  0  0  0  0  0  0
    4.3090   -7.3210    1.5330 C   0  0  0  0  0  3  0  0  0  0  0  0
    4.1760   -6.6260    2.6830 N   0  0  0  0  0  0  0  0  0  0  0  0
    5.1260   -5.6820    2.7770 C   0  0  0  0  0  0  0  0  0  0  0  0
    7.8190   -5.3300   -0.1800 H   0  0  0  0  0  0  0  0  0  0  0  0
    7.0740   -6.6570   -1.0790 H   0  0  0  0  0  0  0  0  0  0  0  0
    2.7650   -1.8680    6.2280 C   0  0  0  0  0  1  0  0  0  0  0  0
    2.8360   -3.2880    6.1670 O   0  0  0  0  0  0  0  0  0  0  0  0
    0.8470   -4.5220    4.9120 O   0  0  0  0  0  0  0  0  0  0  0  0
    0.9290   -3.9550    5.7060 H   0  0  0  0  0  0  0  0  0  0  0  0
    2.1180   -7.4360    5.0550 C   0  0  0  0  0  2  0  0  0  0  0  0
    0.6930   -7.4390    5.1440 O   0  0  0  0  0  0  0  0  0  0  0  0
    0.4710   -7.0540    6.0130 H   0  0  0  0  0  0  0  0  0  0  0  0
  1  2  1  6  0  0  0
  1  6  1  0  0  0  0
  1 20  1  0  0  0  0
  3  1  1  0  0  0  0
  3 21  1  1  0  0  0
  3  4  1  0  0  0  0
  4 23  1  6  0  0  0
  5  4  1  0  0  0  0
  6  7  1  6  0  0  0
  6  5  1  0  0  0  0
  8  7  1  0  0  0  0
  9  8  2  0  0  0  0
 10  9  1  0  0  0  0
 10 16  1  0  0  0  0
 11 10  2  0  0  0  0
 12 17  1  0  0  0  0
 12 11  1  0  0  0  0
 13 11  1  0  0  0  0
 13 14  2  0  0  0  0
 14 15  1  0  0  0  0
 15 16  2  0  0  0  0
 16  7  1  0  0  0  0
 18 12  1  0  0  0  0
 20 19  1  0  0  0  0
 21 22  1  0  0  0  0
 23 24  1  0  0  0  0
 24 25  1  0  0  0  0
M  END
>  <minimizedAffinity>
-4.09904766

$$$$

 OpenBabel09122218003D

 25 27  0  0  1  0  0  0  0  0999 V2000
    2.8770   -5.8260    6.5340 C   0  0  1  0  0  0  0  0  0  0  0  0
    3.8510   -6.9680    6.8330 C   0  0  0  0  0  1  0  0  0  0  0  0
    3.5200   -4.4690    6.8560 C   0  0  1  0  0  3  0  0  0  0  0  0
    2.6100   -3.5110    6.1050 C   0  0  2  0  0  3  0  0  0  0  0  0
    2.3140   -4.1630    4.8510 O   0  0  0  0  0  0  0  0  0  0  0  0
    2.4580   -5.5990    5.0550 C   0  0  1  0  0  3  0  0  0  0  0  0
    3.3690   -6.1100    4.0510 N   0  0  0  0  0  0  0  0  0  0  0  0
    3.2930   -7.2990    3.3780 C   0  0  0  0  0  3  0  0  0  0  0  0
    4.2750   -7.4380    2.5110 N   0  0  0  0  0  0  0  0  0  0  0  0
    5.0380   -6.2950    2.6540 C   0  0  0  0  0  0  0  0  0  0  0  0
    6.2120   -5.8490    2.0240 C   0  0  0  0  0  0  0  0  0  0  0  0
    6.8660   -6.5700    1.0540 N   0  0  0  0  0  0  0  0  0  0  0  0
    6.7220   -4.6500    2.3900 N   0  0  0  0  0  0  0  0  0  0  0  0
    6.0780   -3.9400    3.3410 C   0  0  0  0  0  3  0  0  0  0  0  0
    4.9480   -4.2600    4.0070 N   0  0  0  0  0  0  0  0  0  0  0  0
    4.4900   -5.4580    3.6110 C   0  0  0  0  0  0  0  0  0  0  0  0
    6.5040   -7.4740    0.7840 H   0  0  0  0  0  0  0  0  0  0  0  0
    7.7110   -6.1890    0.6620 H   0  0  0  0  0  0  0  0  0  0  0  0
    1.0020   -7.1440    7.3680 C   0  0  0  0  0  1  0  0  0  0  0  0
    1.7150   -5.9120    7.4070 O   0  0  0  0  0  0  0  0  0  0  0  0
    3.5640   -4.2030    8.2510 O   0  0  0  0  0  0  0  0  0  0  0  0
    2.7450   -4.5880    8.6240 H   0  0  0  0  0  0  0  0  0  0  0  0
    3.2550   -2.1560    5.8340 C   0  0  0  0  0  2  0  0  0  0  0  0
    4.6580   -2.2330    6.0860 O   0  0  0  0  0  0  0  0  0  0  0  0
    4.7580   -2.6780    6.9500 H   0  0  0  0  0  0  0  0  0  0  0  0
  1  2  1  1  0  0  0
  1  3  1  0  0  0  0
  1 20  1  0  0  0  0
  3 21  1  1  0  0  0
  4 23  1  6  0  0  0
  4  3  1  0  0  0  0
  5  6  1  0  0  0  0
  5  4  1  0  0  0  0
  6  7  1  6  0  0  0
  6  1  1  0  0  0  0
  8  7  1  0  0  0  0
  9 10  1  0  0  0  0
  9  8  2  0  0  0  0
 10 16  1  0  0  0  0
 11 13  1  0  0  0  0
 11 10  2  0  0  0  0
 12 11  1  0  0  0  0
 13 14  2  0  0  0  0
 14 15  1  0  0  0  0
 16 15  2  0  0  0  0
 16  7  1  0  0  0  0
 17 12  1  0  0  0  0
 18 12  1  0  0  0  0
 19 20  1  0  0  0  0
 21 22  1  0  0  0  0
 23 24  1  0  0  0  0
 24 25  1  0  0  0  0
M  END
>  <minimizedAffinity>
-3.83516979

$$$$

 OpenBabel09122218003D

 25 27  0  0  1  0  0  0  0  0999 V2000
    4.8390   -4.9600    3.1030 C   0  0  1  0  0  0  0  0  0  0  0  0
    6.2690   -4.4220    3.2060 C   0  0  0  0  0  1  0  0  0  0  0  0
    4.7200   -6.3150    3.8150 C   0  0  1  0  0  3  0  0  0  0  0  0
    3.2140   -6.4460    3.9780 C   0  0  2  0  0  3  0  0  0  0  0  0
    2.7490   -5.1260    4.3350 O   0  0  0  0  0  0  0  0  0  0  0  0
    3.7120   -4.1630    3.8160 C   0  0  1  0  0  3  0  0  0  0  0  0
    4.1310   -3.3080    4.9080 N   0  0  0  0  0  0  0  0  0  0  0  0
    5.3570   -3.2640    5.5160 C   0  0  0  0  0  3  0  0  0  0  0  0
    5.4050   -2.3480    6.4610 N   0  0  0  0  0  0  0  0  0  0  0  0
    4.1400   -1.7950    6.4840 C   0  0  0  0  0  0  0  0  0  0  0  0
    3.5560   -0.7840    7.2660 C   0  0  0  0  0  0  0  0  0  0  0  0
    4.2360   -0.1100    8.2520 N   0  0  0  0  0  0  0  0  0  0  0  0
    2.2630   -0.4570    7.0350 N   0  0  0  0  0  0  0  0  0  0  0  0
    1.5970   -1.1180    6.0630 C   0  0  0  0  0  3  0  0  0  0  0  0
    2.0500   -2.0960    5.2490 N   0  0  0  0  0  0  0  0  0  0  0  0
    3.3320   -2.3840    5.5260 C   0  0  0  0  0  0  0  0  0  0  0  0
    5.1960   -0.3560    8.4460 H   0  0  0  0  0  0  0  0  0  0  0  0
    3.7430    0.5920    8.7800 H   0  0  0  0  0  0  0  0  0  0  0  0
    5.5920   -5.5690    0.8650 C   0  0  0  0  0  1  0  0  0  0  0  0
    4.5010   -5.2300    1.7130 O   0  0  0  0  0  0  0  0  0  0  0  0
    5.2840   -7.3790    3.0620 O   0  0  0  0  0  0  0  0  0  0  0  0
    5.1000   -7.1710    2.1230 H   0  0  0  0  0  0  0  0  0  0  0  0
    2.8110   -7.4380    5.0640 C   0  0  0  0  0  2  0  0  0  0  0  0
    3.6800   -7.3010    6.1880 O   0  0  0  0  0  0  0  0  0  0  0  0
    4.5890   -7.2830    5.8320 H   0  0  0  0  0  0  0  0  0  0  0  0
  1  2  1  1  0  0  0
  1  3  1  0  0  0  0
  1  6  1  0  0  0  0
  3 21  1  6  0  0  0
  3  4  1  0  0  0  0
  4  5  1  0  0  0  0
  4 23  1  1  0  0  0
  6  5  1  0  0  0  0
  6  7  1  1  0  0  0
  7  8  1  0  0  0  0
  7 16  1  0  0  0  0
  8  9  2  0  0  0  0
  9 10  1  0  0  0  0
 10 11  1  0  0  0  0
 11 12  1  0  0  0  0
 12 17  1  0  0  0  0
 12 18  1  0  0  0  0
 13 11  2  0  0  0  0
 14 13  1  0  0  0  0
 15 16  1  0  0  0  0
 15 14  2  0  0  0  0
 16 10  2  0  0  0  0
 19 20  1  0  0  0  0
 20  1  1  0  0  0  0
 22 21  1  0  0  0  0
 23 24  1  0  0  0  0
 25 24  1  0  0  0  0
M  END
>  <minimizedAffinity>
-3.58140445

$$$$

 OpenBabel09122218003D

 25 27  0  0  1  0  0  0  0  0999 V2000
    3.1500   -4.9130    6.8990 C   0  0  1  0  0  0  0  0  0  0  0  0
    4.4880   -5.5630    7.2600 C   0  0  0  0  0  1  0  0  0  0  0  0
    3.3370   -3.4170    6.6080 C   0  0  1  0  0  3  0  0  0  0  0  0
    2.0490   -3.0830    5.8730 C   0  0  2  0  0  3  0  0  0  0  0  0
    1.7970   -4.2100    5.0050 O   0  0  0  0  0  0  0  0  0  0  0  0
    2.4500   -5.3730    5.5910 C   0  0  1  0  0  3  0  0  0  0  0  0
    3.3080   -5.9640    4.5850 N   0  0  0  0  0  0  0  0  0  0  0  0
    3.2570   -7.2370    4.0810 C   0  0  0  0  0  3  0  0  0  0  0  0
    4.1720   -7.4370    3.1560 N   0  0  0  0  0  0  0  0  0  0  0  0
    4.8670   -6.2460    3.0800 C   0  0  0  0  0  0  0  0  0  0  0  0
    5.9540   -5.8250    2.2960 C   0  0  0  0  0  0  0  0  0  0  0  0
    6.5740   -6.6350    1.3740 N   0  0  0  0  0  0  0  0  0  0  0  0
    6.4120   -4.5620    2.4560 N   0  0  0  0  0  0  0  0  0  0  0  0
    5.8010   -3.7660    3.3600 C   0  0  0  0  0  3  0  0  0  0  0  0
    4.7530   -4.0540    4.1600 N   0  0  0  0  0  0  0  0  0  0  0  0
    4.3450   -5.3190    3.9660 C   0  0  0  0  0  0  0  0  0  0  0  0
    6.2520   -7.5850    1.2570 H   0  0  0  0  0  0  0  0  0  0  0  0
    7.3580   -6.2640    0.8610 H   0  0  0  0  0  0  0  0  0  0  0  0
    1.5970   -6.2190    8.2520 C   0  0  0  0  0  1  0  0  0  0  0  0
    2.2410   -4.9680    8.0350 O   0  0  0  0  0  0  0  0  0  0  0  0
    3.5100   -2.6480    7.7900 O   0  0  0  0  0  0  0  0  0  0  0  0
    2.9400   -3.0660    8.4680 H   0  0  0  0  0  0  0  0  0  0  0  0
    2.1450   -1.8100    5.0400 C   0  0  0  0  0  2  0  0  0  0  0  0
    0.8350   -1.3070    4.7770 O   0  0  0  0  0  0  0  0  0  0  0  0
    0.3040   -2.0690    4.4780 H   0  0  0  0  0  0  0  0  0  0  0  0
  1  2  1  1  0  0  0
  1 20  1  0  0  0  0
  3  1  1  0  0  0  0
  3 21  1  1  0  0  0
  4 23  1  6  0  0  0
  4  3  1  0  0  0  0
  5  6  1  0  0  0  0
  5  4  1  0  0  0  0
  6  7  1  6  0  0  0
  6  1  1  0  0  0  0
  8  7  1  0  0  0  0
  9  8  2  0  0  0  0
 10  9  1  0  0  0  0
 10 16  1  0  0  0  0
 11 13  1  0  0  0  0
 11 10  2  0  0  0  0
 12 11  1  0  0  0  0
 13 14  2  0  0  0  0
 14 15  1  0  0  0  0
 16 15  2  0  0  0  0
 16  7  1  0  0  0  0
 17 12  1  0  0  0  0
 18 12  1  0  0  0  0
 20 19  1  0  0  0  0
 21 22  1  0  0  0  0
 24 23  1  0  0  0  0
 25 24  1  0  0  0  0
M  END
>  <minimizedAffinity>
-3.44360089

$$$$

 OpenBabel09122218003D

 25 27  0  0  1  0  0  0  0  0999 V2000
    3.2390   -6.1860    4.7050 C   0  0  1  0  0  0  0  0  0  0  0  0
    1.7090   -6.1410    4.7220 C   0  0  0  0  0  1  0  0  0  0  0  0
    3.7640   -6.1790    3.2620 C   0  0  1  0  0  3  0  0  0  0  0  0
    5.2190   -5.7890    3.4650 C   0  0  2  0  0  3  0  0  0  0  0  0
    5.2060   -4.7730    4.4910 O   0  0  0  0  0  0  0  0  0  0  0  0
    4.0070   -4.9700    5.2930 C   0  0  1  0  0  3  0  0  0  0  0  0
    3.2780   -3.7180    5.3340 N   0  0  0  0  0  0  0  0  0  0  0  0
    2.3930   -3.2320    4.4090 C   0  0  0  0  0  3  0  0  0  0  0  0
    1.8890   -2.0710    4.7720 N   0  0  0  0  0  0  0  0  0  0  0  0
    2.5020   -1.7790    5.9740 C   0  0  0  0  0  0  0  0  0  0  0  0
    2.3990   -0.6900    6.8570 C   0  0  0  0  0  0  0  0  0  0  0  0
    1.5740    0.3860    6.6290 N   0  0  0  0  0  0  0  0  0  0  0  0
    3.1450   -0.7030    7.9850 N   0  0  0  0  0  0  0  0  0  0  0  0
    3.9530   -1.7620    8.2100 C   0  0  0  0  0  3  0  0  0  0  0  0
    4.1310   -2.8610    7.4440 N   0  0  0  0  0  0  0  0  0  0  0  0
    3.3730   -2.7920    6.3380 C   0  0  0  0  0  0  0  0  0  0  0  0
    1.0240    0.4150    5.7820 H   0  0  0  0  0  0  0  0  0  0  0  0
    1.5680    1.1350    7.3020 H   0  0  0  0  0  0  0  0  0  0  0  0
    3.9170   -7.4390    6.6840 C   0  0  0  0  0  1  0  0  0  0  0  0
    3.7130   -7.4390    5.2750 O   0  0  0  0  0  0  0  0  0  0  0  0
    3.6180   -7.4380    2.6210 O   0  0  0  0  0  0  0  0  0  0  0  0
    3.7670   -8.1120    3.3160 H   0  0  0  0  0  0  0  0  0  0  0  0
    5.8750   -5.2340    2.2050 C   0  0  0  0  0  2  0  0  0  0  0  0
    5.5140   -6.0370    1.0820 O   0  0  0  0  0  0  0  0  0  0  0  0
    5.6470   -6.9650    1.3540 H   0  0  0  0  0  0  0  0  0  0  0  0
  1  2  1  1  0  0  0
  1 20  1  0  0  0  0
  1  6  1  0  0  0  0
  3 21  1  1  0  0  0
  3  4  1  0  0  0  0
  3  1  1  0  0  0  0
  4 23  1  6  0  0  0
  4  5  1  0  0  0  0
  5  6  1  0  0  0  0
  6  7  1  6  0  0  0
  7 16  1  0  0  0  0
  8  9  2  0  0  0  0
  8  7  1  0  0  0  0
  9 10  1  0  0  0  0
 10 16  2  0  0  0  0
 10 11  1  0  0  0  0
 11 13  2  0  0  0  0
 12 11  1  0  0  0  0
 12 18  1  0  0  0  0
 13 14  1  0  0  0  0
 15 14  2  0  0  0  0
 16 15  1  0  0  0  0
 17 12  1  0  0  0  0
 20 19  1  0  0  0  0
 21 22  1  0  0  0  0
 24 25  1  0  0  0  0
 24 23  1  0  0  0  0
M  END
>  <minimizedAffinity>
-3.22182322

$$$$
