
 OpenBabel09122222393D

 25 27  0  0  1  0  0  0  0  0999 V2000
    4.0130   -3.0420    6.6180 C   0  0  1  0  0  0  0  0  0  0  0  0
    3.2700   -2.2990    5.5050 C   0  0  0  0  0  1  0  0  0  0  0  0
    3.1210   -4.1310    7.2310 C   0  0  1  0  0  3  0  0  0  0  0  0
    4.1410   -4.9940    7.9550 C   0  0  2  0  0  3  0  0  0  0  0  0
    5.2800   -5.0680    7.0710 O   0  0  0  0  0  0  0  0  0  0  0  0
    5.2580   -3.8840    6.2230 C   0  0  1  0  0  3  0  0  0  0  0  0
    5.3200   -4.3150    4.8410 N   0  0  0  0  0  0  0  0  0  0  0  0
    5.9860   -3.7180    3.8040 C   0  0  0  0  0  3  0  0  0  0  0  0
    5.8530   -4.3910    2.6810 N   0  0  0  0  0  0  0  0  0  0  0  0
    5.0380   -5.4590    3.0010 C   0  0  0  0  0  0  0  0  0  0  0  0
    4.5260   -6.5270    2.2460 C   0  0  0  0  0  0  0  0  0  0  0  0
    4.7840   -6.6920    0.9060 N   0  0  0  0  0  0  0  0  0  0  0  0
    3.7420   -7.4380    2.8680 N   0  0  0  0  0  0  0  0  0  0  0  0
    3.4910   -7.2780    4.1850 C   0  0  0  0  0  3  0  0  0  0  0  0
    3.9280   -6.3030    5.0110 N   0  0  0  0  0  0  0  0  0  0  0  0
    4.6930   -5.4260    4.3420 C   0  0  0  0  0  0  0  0  0  0  0  0
    5.3540   -6.0100    0.4260 H   0  0  0  0  0  0  0  0  0  0  0  0
    4.3670   -7.4760    0.4300 H   0  0  0  0  0  0  0  0  0  0  0  0
    5.4940   -1.3520    7.5670 C   0  0  0  0  0  1  0  0  0  0  0  0
    4.3140   -2.1350    7.7170 O   0  0  0  0  0  0  0  0  0  0  0  0
    2.1330   -3.6000    8.1040 O   0  0  0  0  0  0  0  0  0  0  0  0
    2.5530   -2.8390    8.5530 H   0  0  0  0  0  0  0  0  0  0  0  0
    3.6350   -6.4020    8.2510 C   0  0  0  0  0  2  0  0  0  0  0  0
    4.6660   -7.3510    7.9780 O   0  0  0  0  0  0  0  0  0  0  0  0
    5.0280   -7.1180    7.1020 H   0  0  0  0  0  0  0  0  0  0  0  0
  1  2  1  6  0  0  0
  1  3  1  0  0  0  0
  1 20  1  0  0  0  0
  3  4  1  0  0  0  0
  3 21  1  1  0  0  0
  4 23  1  6  0  0  0
  5  4  1  0  0  0  0
  6  7  1  6  0  0  0
  6  1  1  0  0  0  0
  6  5  1  0  0  0  0
  8  7  1  0  0  0  0
  9 10  1  0  0  0  0
  9  8  2  0  0  0  0
 10 16  1  0  0  0  0
 11 13  1  0  0  0  0
 11 10  2  0  0  0  0
 12 11  1  0  0  0  0
 13 14  2  0  0  0  0
 14 15  1  0  0  0  0
 16  7  1  0  0  0  0
 16 15  2  0  0  0  0
 17 12  1  0  0  0  0
 18 12  1  0  0  0  0
 19 20  1  0  0  0  0
 21 22  1  0  0  0  0
 24 23  1  0  0  0  0
 25 24  1  0  0  0  0
M  END
>  <minimizedAffinity>
-4.21567678

$$$$
