
 OpenBabel09092210413D

 44 49  0  0  0  0  0  0  0  0999 V2000
    4.3090   -6.0570  -10.9230 C   0  0  0  0  0  0  0  0  0  0  0  0
    4.6000   -6.1870   -9.5730 C   0  0  0  0  0  3  0  0  0  0  0  0
    3.9630   -5.3600   -8.6440 C   0  0  0  0  0  3  0  0  0  0  0  0
    3.0110   -4.3990   -9.0340 C   0  0  0  0  0  0  0  0  0  0  0  0
    2.7240   -4.2440  -10.4170 C   0  0  0  0  0  0  0  0  0  0  0  0
    3.3840   -5.0910  -11.3310 C   0  0  0  0  0  3  0  0  0  0  0  0
    1.7510   -3.2390  -10.9570 C   0  0  0  0  0  0  0  0  0  0  0  0
    0.8930   -3.6800  -12.1200 C   0  0  0  0  0  1  0  0  0  0  0  0
    1.6710   -2.0090  -10.4000 C   0  0  0  0  0  0  0  0  0  0  0  0
    2.6090   -1.4930   -9.3470 C   0  0  0  0  0  2  0  0  0  0  0  0
    2.3410   -2.1800   -8.0920 N   0  0  0  0  0  0  0  0  0  0  0  0
    2.4240   -3.5540   -7.9660 C   0  0  0  0  0  0  0  0  0  0  0  0
    1.8940   -3.8710   -6.7110 C   0  0  0  0  0  0  0  0  0  0  0  0
    1.6420   -2.6250   -6.0290 C   0  0  0  0  0  0  0  0  0  0  0  0
    1.1940   -2.2830   -4.7290 C   0  0  0  0  0  3  0  0  0  0  0  0
    1.0360   -0.9410   -4.3610 C   0  0  0  0  0  3  0  0  0  0  0  0
    1.2820    0.0610   -5.2920 C   0  0  0  0  0  0  0  0  0  0  0  0
    1.7560   -0.2360   -6.5760 C   0  0  0  0  0  3  0  0  0  0  0  0
    1.9230   -1.5890   -6.9210 C   0  0  0  0  0  0  0  0  0  0  0  0
    1.1230    1.4800   -4.9240 C   0  0  0  0  0  0  0  0  0  0  0  0
    2.0500    2.1100   -4.4410 O   0  0  0  0  0  0  0  0  0  0  0  0
   -0.0700    2.1240   -5.3020 N   0  0  0  0  0  0  0  0  0  0  0  0
   -1.5900    1.5260   -5.0070 S   0  0  0  0  0  0  0  0  0  0  0  0
   -1.5940    1.0120   -3.6590 O   0  0  0  0  0  0  0  0  0  0  0  0
   -2.5280    2.5410   -5.4260 O   0  0  0  0  0  0  0  0  0  0  0  0
   -1.6760    0.2560   -6.0860 N   0  0  0  0  0  0  0  0  0  0  0  0
   -2.3110   -0.9860   -5.6290 C   0  0  0  0  0  1  0  0  0  0  0  0
   -1.6530    0.5450   -7.5390 C   0  0  0  0  0  2  0  0  0  0  0  0
   -2.8700    0.0070   -8.2900 C   0  0  0  0  0  2  0  0  0  0  0  0
   -2.8310    0.1720   -9.8160 C   0  0  0  0  0  2  0  0  0  0  0  0
   -1.4750    0.0770  -10.5260 C   0  0  0  0  0  2  0  0  0  0  0  0
   -0.6270   -1.1050  -10.3410 N   0  0  0  0  0  0  0  0  0  0  0  0
   -1.1570   -2.2930   -9.6760 C   0  0  0  0  0  1  0  0  0  0  0  0
    0.6800   -0.9830  -10.8120 C   0  0  0  0  0  0  0  0  0  0  0  0
    1.0850   -0.0090  -11.4450 O   0  0  0  0  0  0  0  0  0  0  0  0
   -0.0480    3.1060   -5.0330 H   0  0  0  0  0  0  0  0  0  0  0  0
    1.6380   -5.2650   -6.1740 C   0  0  0  0  0  3  0  0  0  0  0  0
    2.5720   -5.6370   -5.0110 C   0  0  0  0  0  2  0  0  0  0  0  0
    2.3070   -7.0580   -4.5150 C   0  0  0  0  0  2  0  0  0  0  0  0
    0.8410   -7.2600   -4.1400 C   0  0  0  0  0  2  0  0  0  0  0  0
   -0.0890   -6.8990   -5.2950 C   0  0  0  0  0  2  0  0  0  0  0  0
    0.1610   -5.4780   -5.7970 C   0  0  0  0  0  2  0  0  0  0  0  0
    6.1720   -6.4390  -12.3510 C   0  0  0  0  0  1  0  0  0  0  0  0
    4.8570   -6.7900  -11.9390 O   0  0  0  0  0  0  0  0  0  0  0  0
  1  2  1  0  0  0  0
  2  3  2  0  0  0  0
  4  3  1  0  0  0  0
  4 12  1  0  0  0  0
  5  4  2  0  0  0  0
  6  1  2  0  0  0  0
  6  5  1  0  0  0  0
  7  5  1  0  0  0  0
  7  9  2  0  0  0  0
  8  7  1  0  0  0  0
  9 10  1  0  0  0  0
 10 11  1  0  0  0  0
 11 12  1  0  0  0  0
 11 19  1  0  0  0  0
 12 13  2  0  0  0  0
 13 37  1  0  0  0  0
 13 14  1  0  0  0  0
 14 15  1  0  0  0  0
 15 16  2  0  0  0  0
 17 20  1  0  0  0  0
 17 16  1  0  0  0  0
 18 17  2  0  0  0  0
 19 18  1  0  0  0  0
 19 14  2  0  0  0  0
 20 21  2  0  0  0  0
 22 36  1  0  0  0  0
 22 23  1  0  0  0  0
 22 20  1  0  0  0  0
 23 24  2  0  0  0  0
 25 23  2  0  0  0  0
 26 27  1  0  0  0  0
 26 23  1  0  0  0  0
 28 26  1  0  0  0  0
 29 28  1  0  0  0  0
 30 29  1  0  0  0  0
 31 32  1  0  0  0  0
 31 30  1  0  0  0  0
 32 33  1  0  0  0  0
 34  9  1  0  0  0  0
 34 32  1  0  0  0  0
 35 34  2  0  0  0  0
 37 42  1  0  0  0  0
 37 38  1  0  0  0  0
 38 39  1  0  0  0  0
 39 40  1  0  0  0  0
 41 40  1  0  0  0  0
 42 41  1  0  0  0  0
 43 44  1  0  0  0  0
 44  1  1  0  0  0  0
M  END
>  <minimizedAffinity>
-4.63925838

$$$$
