
 OpenBabel09092210413D

 44 49  0  0  0  0  0  0  0  0999 V2000
   -0.4390   -1.0870   -1.4680 C   0  0  0  0  0  0  0  0  0  0  0  0
   -0.1770   -0.8710   -2.8130 C   0  0  0  0  0  3  0  0  0  0  0  0
    0.8030   -1.6290   -3.4580 C   0  0  0  0  0  3  0  0  0  0  0  0
    1.5310   -2.6290   -2.7860 C   0  0  0  0  0  0  0  0  0  0  0  0
    1.2850   -2.8410   -1.4030 C   0  0  0  0  0  0  0  0  0  0  0  0
    0.2910   -2.0600   -0.7780 C   0  0  0  0  0  3  0  0  0  0  0  0
    2.0120   -3.8570   -0.5740 C   0  0  0  0  0  0  0  0  0  0  0  0
    1.1990   -4.6020    0.4590 C   0  0  0  0  0  1  0  0  0  0  0  0
    3.3330   -4.0710   -0.7740 C   0  0  0  0  0  0  0  0  0  0  0  0
    4.1980   -3.2450   -1.6830 C   0  0  0  0  0  2  0  0  0  0  0  0
    3.8470   -3.5350   -3.0660 N   0  0  0  0  0  0  0  0  0  0  0  0
    2.5700   -3.3490   -3.5620 C   0  0  0  0  0  0  0  0  0  0  0  0
    2.5490   -3.9280   -4.8350 C   0  0  0  0  0  0  0  0  0  0  0  0
    3.9020   -4.3230   -5.1440 C   0  0  0  0  0  0  0  0  0  0  0  0
    4.5340   -4.8770   -6.2840 C   0  0  0  0  0  3  0  0  0  0  0  0
    5.9050   -5.1660   -6.2690 C   0  0  0  0  0  3  0  0  0  0  0  0
    6.6410   -4.9440   -5.1120 C   0  0  0  0  0  0  0  0  0  0  0  0
    6.0590   -4.3680   -3.9760 C   0  0  0  0  0  3  0  0  0  0  0  0
    4.6850   -4.0710   -4.0160 C   0  0  0  0  0  0  0  0  0  0  0  0
    8.0850   -5.2400   -5.0760 C   0  0  0  0  0  0  0  0  0  0  0  0
    8.9060   -4.3990   -5.4060 O   0  0  0  0  0  0  0  0  0  0  0  0
    8.4900   -6.4550   -4.4930 N   0  0  0  0  0  0  0  0  0  0  0  0
    7.8500   -7.9370   -4.8800 S   0  0  0  0  0  0  0  0  0  0  0  0
    7.7160   -7.9840   -6.3160 O   0  0  0  0  0  0  0  0  0  0  0  0
    8.6240   -8.9260   -4.1660 O   0  0  0  0  0  0  0  0  0  0  0  0
    6.3370   -7.8530   -4.1830 N   0  0  0  0  0  0  0  0  0  0  0  0
    5.2070   -8.4120   -4.9340 C   0  0  0  0  0  1  0  0  0  0  0  0
    6.2300   -7.7620   -2.7070 C   0  0  0  0  0  2  0  0  0  0  0  0
    5.3980   -8.8830   -2.0840 C   0  0  0  0  0  2  0  0  0  0  0  0
    5.1550   -8.7620   -0.5730 C   0  0  0  0  0  2  0  0  0  0  0  0
    5.0030   -7.3610    0.0330 C   0  0  0  0  0  2  0  0  0  0  0  0
    3.9980   -6.4340   -0.4980 N   0  0  0  0  0  0  0  0  0  0  0  0
    2.9860   -6.9060   -1.4390 C   0  0  0  0  0  1  0  0  0  0  0  0
    4.1140   -5.1130   -0.0620 C   0  0  0  0  0  0  0  0  0  0  0  0
    4.9180   -4.7510    0.7950 O   0  0  0  0  0  0  0  0  0  0  0  0
    9.5050   -6.5300   -4.4870 H   0  0  0  0  0  0  0  0  0  0  0  0
    1.3310   -4.1040   -5.7190 C   0  0  0  0  0  3  0  0  0  0  0  0
    1.3790   -3.2290   -6.9820 C   0  0  0  0  0  2  0  0  0  0  0  0
    0.1230   -3.4090   -7.8330 C   0  0  0  0  0  2  0  0  0  0  0  0
   -0.1190   -4.8760   -8.1790 C   0  0  0  0  0  2  0  0  0  0  0  0
   -0.1750   -5.7460   -6.9270 C   0  0  0  0  0  2  0  0  0  0  0  0
    1.0780   -5.5820   -6.0690 C   0  0  0  0  0  2  0  0  0  0  0  0
   -1.4480   -0.7780    0.6640 C   0  0  0  0  0  1  0  0  0  0  0  0
   -1.3610   -0.4190   -0.7100 O   0  0  0  0  0  0  0  0  0  0  0  0
  1  6  1  0  0  0  0
  1 44  1  0  0  0  0
  2  1  2  0  0  0  0
  3  2  1  0  0  0  0
  3  4  2  0  0  0  0
  4  5  1  0  0  0  0
  5  6  2  0  0  0  0
  5  7  1  0  0  0  0
  7  8  1  0  0  0  0
  9  7  2  0  0  0  0
  9 34  1  0  0  0  0
 10  9  1  0  0  0  0
 11 10  1  0  0  0  0
 12 11  1  0  0  0  0
 12  4  1  0  0  0  0
 13 12  2  0  0  0  0
 14 13  1  0  0  0  0
 14 19  1  0  0  0  0
 15 16  1  0  0  0  0
 15 14  2  0  0  0  0
 16 17  2  0  0  0  0
 17 20  1  0  0  0  0
 17 18  1  0  0  0  0
 19 18  2  0  0  0  0
 19 11  1  0  0  0  0
 20 22  1  0  0  0  0
 21 20  2  0  0  0  0
 22 36  1  0  0  0  0
 23 22  1  0  0  0  0
 23 26  1  0  0  0  0
 23 25  2  0  0  0  0
 24 23  2  0  0  0  0
 26 28  1  0  0  0  0
 27 26  1  0  0  0  0
 28 29  1  0  0  0  0
 29 30  1  0  0  0  0
 30 31  1  0  0  0  0
 32 34  1  0  0  0  0
 32 31  1  0  0  0  0
 33 32  1  0  0  0  0
 34 35  2  0  0  0  0
 37 13  1  0  0  0  0
 38 37  1  0  0  0  0
 39 38  1  0  0  0  0
 40 39  1  0  0  0  0
 40 41  1  0  0  0  0
 41 42  1  0  0  0  0
 42 37  1  0  0  0  0
 44 43  1  0  0  0  0
M  END
>  <minimizedAffinity>
-4.61681271

$$$$
