
 OpenBabel09092210413D

 44 49  0  0  0  0  0  0  0  0999 V2000
    8.8620   -7.8650   -6.8790 C   0  0  0  0  0  0  0  0  0  0  0  0
    9.0270   -7.1570   -5.6980 C   0  0  0  0  0  3  0  0  0  0  0  0
    7.9420   -6.4790   -5.1390 C   0  0  0  0  0  3  0  0  0  0  0  0
    6.6650   -6.5030   -5.7320 C   0  0  0  0  0  0  0  0  0  0  0  0
    6.4930   -7.2070   -6.9540 C   0  0  0  0  0  0  0  0  0  0  0  0
    7.6070   -7.8810   -7.4950 C   0  0  0  0  0  3  0  0  0  0  0  0
    5.1900   -7.2840   -7.6940 C   0  0  0  0  0  0  0  0  0  0  0  0
    4.8560   -8.6040   -8.3470 C   0  0  0  0  0  1  0  0  0  0  0  0
    4.3790   -6.2030   -7.7460 C   0  0  0  0  0  0  0  0  0  0  0  0
    4.7490   -4.8390   -7.2370 C   0  0  0  0  0  2  0  0  0  0  0  0
    4.7740   -4.8640   -5.7820 N   0  0  0  0  0  0  0  0  0  0  0  0
    5.5950   -5.7180   -5.0700 C   0  0  0  0  0  0  0  0  0  0  0  0
    5.1990   -5.6260   -3.7310 C   0  0  0  0  0  0  0  0  0  0  0  0
    4.2230   -4.5660   -3.6500 C   0  0  0  0  0  0  0  0  0  0  0  0
    3.5220   -3.9480   -2.5850 C   0  0  0  0  0  3  0  0  0  0  0  0
    2.6050   -2.9200   -2.8380 C   0  0  0  0  0  3  0  0  0  0  0  0
    2.3500   -2.5330   -4.1490 C   0  0  0  0  0  0  0  0  0  0  0  0
    3.0460   -3.0980   -5.2240 C   0  0  0  0  0  3  0  0  0  0  0  0
    3.9750   -4.1180   -4.9480 C   0  0  0  0  0  0  0  0  0  0  0  0
    1.3900   -1.4530   -4.4360 C   0  0  0  0  0  0  0  0  0  0  0  0
    1.7490   -0.2870   -4.4740 O   0  0  0  0  0  0  0  0  0  0  0  0
    0.0890   -1.8210   -4.8300 N   0  0  0  0  0  0  0  0  0  0  0  0
   -0.8610   -2.9110   -4.0160 S   0  0  0  0  0  0  0  0  0  0  0  0
   -0.7250   -2.6290   -2.6070 O   0  0  0  0  0  0  0  0  0  0  0  0
   -2.1530   -2.9040   -4.6610 O   0  0  0  0  0  0  0  0  0  0  0  0
   -0.1070   -4.3570   -4.3680 N   0  0  0  0  0  0  0  0  0  0  0  0
    0.0110   -5.3450   -3.2900 C   0  0  0  0  0  1  0  0  0  0  0  0
   -0.0910   -4.8350   -5.7710 C   0  0  0  0  0  2  0  0  0  0  0  0
   -0.7120   -6.2190   -5.9530 C   0  0  0  0  0  2  0  0  0  0  0  0
   -0.6060   -6.8100   -7.3660 C   0  0  0  0  0  2  0  0  0  0  0  0
    0.6400   -6.4900   -8.2000 C   0  0  0  0  0  2  0  0  0  0  0  0
    1.9770   -6.7730   -7.6660 N   0  0  0  0  0  0  0  0  0  0  0  0
    2.1290   -7.5680   -6.4510 C   0  0  0  0  0  1  0  0  0  0  0  0
    3.0370   -6.2120   -8.3800 C   0  0  0  0  0  0  0  0  0  0  0  0
    2.8960   -5.6180   -9.4480 O   0  0  0  0  0  0  0  0  0  0  0  0
   -0.4690   -0.9960   -5.0420 H   0  0  0  0  0  0  0  0  0  0  0  0
    5.7060   -6.4790   -2.5860 C   0  0  0  0  0  3  0  0  0  0  0  0
    6.3280   -5.6490   -1.4520 C   0  0  0  0  0  2  0  0  0  0  0  0
    6.8540   -6.5420   -0.3300 C   0  0  0  0  0  2  0  0  0  0  0  0
    5.7740   -7.4840    0.1950 C   0  0  0  0  0  2  0  0  0  0  0  0
    5.1600   -8.3160   -0.9260 C   0  0  0  0  0  2  0  0  0  0  0  0
    4.6230   -7.4350   -2.0530 C   0  0  0  0  0  2  0  0  0  0  0  0
   11.1830   -8.2410   -7.2390 C   0  0  0  0  0  1  0  0  0  0  0  0
    9.8320   -8.5680   -7.5390 O   0  0  0  0  0  0  0  0  0  0  0  0
  1  2  1  0  0  0  0
  2  3  2  0  0  0  0
  4  3  1  0  0  0  0
  4 12  1  0  0  0  0
  5  4  2  0  0  0  0
  6  5  1  0  0  0  0
  6  1  2  0  0  0  0
  7  5  1  0  0  0  0
  8  7  1  0  0  0  0
  9  7  2  0  0  0  0
  9 10  1  0  0  0  0
 10 11  1  0  0  0  0
 11 12  1  0  0  0  0
 11 19  1  0  0  0  0
 12 13  2  0  0  0  0
 13 14  1  0  0  0  0
 13 37  1  0  0  0  0
 14 15  1  0  0  0  0
 16 15  2  0  0  0  0
 17 16  1  0  0  0  0
 18 19  1  0  0  0  0
 18 17  2  0  0  0  0
 19 14  2  0  0  0  0
 20 17  1  0  0  0  0
 21 20  2  0  0  0  0
 22 20  1  0  0  0  0
 22 23  1  0  0  0  0
 23 24  2  0  0  0  0
 25 23  2  0  0  0  0
 26 23  1  0  0  0  0
 26 27  1  0  0  0  0
 28 26  1  0  0  0  0
 29 28  1  0  0  0  0
 30 29  1  0  0  0  0
 31 32  1  0  0  0  0
 31 30  1  0  0  0  0
 32 33  1  0  0  0  0
 34  9  1  0  0  0  0
 34 32  1  0  0  0  0
 35 34  2  0  0  0  0
 36 22  1  0  0  0  0
 37 42  1  0  0  0  0
 37 38  1  0  0  0  0
 38 39  1  0  0  0  0
 39 40  1  0  0  0  0
 41 40  1  0  0  0  0
 42 41  1  0  0  0  0
 44 43  1  0  0  0  0
 44  1  1  0  0  0  0
M  END
>  <minimizedAffinity>
-4.79038429

$$$$
