
 OpenBabel09092210413D

 44 49  0  0  0  0  0  0  0  0999 V2000
    2.6810   -3.7570   -9.9830 C   0  0  0  0  0  0  0  0  0  0  0  0
    3.9940   -4.0460   -9.6450 C   0  0  0  0  0  3  0  0  0  0  0  0
    4.3320   -4.2730   -8.3080 C   0  0  0  0  0  3  0  0  0  0  0  0
    3.3690   -4.2360   -7.2820 C   0  0  0  0  0  0  0  0  0  0  0  0
    2.0250   -3.9180   -7.6180 C   0  0  0  0  0  0  0  0  0  0  0  0
    1.7140   -3.6920   -8.9750 C   0  0  0  0  0  3  0  0  0  0  0  0
    0.9160   -3.8220   -6.6120 C   0  0  0  0  0  0  0  0  0  0  0  0
   -0.4330   -4.3540   -7.0340 C   0  0  0  0  0  1  0  0  0  0  0  0
    1.1540   -3.2830   -5.3950 C   0  0  0  0  0  0  0  0  0  0  0  0
    2.4390   -2.6130   -5.0000 C   0  0  0  0  0  2  0  0  0  0  0  0
    3.4790   -3.6210   -4.8590 N   0  0  0  0  0  0  0  0  0  0  0  0
    3.8460   -4.4580   -5.8960 C   0  0  0  0  0  0  0  0  0  0  0  0
    4.6960   -5.4240   -5.3460 C   0  0  0  0  0  0  0  0  0  0  0  0
    4.9500   -5.0370   -3.9800 C   0  0  0  0  0  0  0  0  0  0  0  0
    5.7740   -5.5460   -2.9460 C   0  0  0  0  0  3  0  0  0  0  0  0
    5.7940   -4.9340   -1.6860 C   0  0  0  0  0  3  0  0  0  0  0  0
    4.9680   -3.8450   -1.4360 C   0  0  0  0  0  0  0  0  0  0  0  0
    4.1640   -3.2950   -2.4420 C   0  0  0  0  0  3  0  0  0  0  0  0
    4.1690   -3.9130   -3.7050 C   0  0  0  0  0  0  0  0  0  0  0  0
    4.9760   -3.1870   -0.1180 C   0  0  0  0  0  0  0  0  0  0  0  0
    5.7530   -2.2770    0.1250 O   0  0  0  0  0  0  0  0  0  0  0  0
    3.9520   -3.5240    0.7880 N   0  0  0  0  0  0  0  0  0  0  0  0
    3.5330   -5.0790    1.1890 S   0  0  0  0  0  0  0  0  0  0  0  0
    4.7580   -5.8190    1.3750 O   0  0  0  0  0  0  0  0  0  0  0  0
    2.5440   -4.9880    2.2370 O   0  0  0  0  0  0  0  0  0  0  0  0
    2.7750   -5.6010   -0.2030 N   0  0  0  0  0  0  0  0  0  0  0  0
    3.0410   -6.9730   -0.6510 C   0  0  0  0  0  1  0  0  0  0  0  0
    1.5060   -4.9550   -0.6150 C   0  0  0  0  0  2  0  0  0  0  0  0
    0.3410   -5.9330   -0.7630 C   0  0  0  0  0  2  0  0  0  0  0  0
   -0.9610   -5.3310   -1.3080 C   0  0  0  0  0  2  0  0  0  0  0  0
   -0.8680   -4.1990   -2.3380 C   0  0  0  0  0  2  0  0  0  0  0  0
   -0.0960   -4.3860   -3.5710 N   0  0  0  0  0  0  0  0  0  0  0  0
    0.3910   -5.7130   -3.9390 C   0  0  0  0  0  1  0  0  0  0  0  0
    0.1430   -3.2260   -4.3090 C   0  0  0  0  0  0  0  0  0  0  0  0
   -0.3460   -2.1320   -4.0300 O   0  0  0  0  0  0  0  0  0  0  0  0
    4.0360   -2.9780    1.6430 H   0  0  0  0  0  0  0  0  0  0  0  0
    5.2450   -6.6440   -6.0590 C   0  0  0  0  0  3  0  0  0  0  0  0
    6.7680   -6.5870   -6.2520 C   0  0  0  0  0  2  0  0  0  0  0  0
    7.2820   -7.8170   -6.9990 C   0  0  0  0  0  2  0  0  0  0  0  0
    6.8540   -9.1120   -6.3150 C   0  0  0  0  0  2  0  0  0  0  0  0
    5.3410   -9.1760   -6.1280 C   0  0  0  0  0  2  0  0  0  0  0  0
    4.8140   -7.9550   -5.3760 C   0  0  0  0  0  2  0  0  0  0  0  0
    1.3510   -2.3860  -11.4010 C   0  0  0  0  0  1  0  0  0  0  0  0
    2.2100   -3.5090  -11.2430 O   0  0  0  0  0  0  0  0  0  0  0  0
  1  2  2  0  0  0  0
  1  6  1  0  0  0  0
  2  3  1  0  0  0  0
  3  4  2  0  0  0  0
  4 12  1  0  0  0  0
  5  4  1  0  0  0  0
  5  7  1  0  0  0  0
  6  5  2  0  0  0  0
  7  9  2  0  0  0  0
  8  7  1  0  0  0  0
  9 10  1  0  0  0  0
  9 34  1  0  0  0  0
 10 11  1  0  0  0  0
 11 19  1  0  0  0  0
 12 13  2  0  0  0  0
 12 11  1  0  0  0  0
 13 14  1  0  0  0  0
 14 19  2  0  0  0  0
 14 15  1  0  0  0  0
 15 16  2  0  0  0  0
 16 17  1  0  0  0  0
 17 20  1  0  0  0  0
 18 17  2  0  0  0  0
 19 18  1  0  0  0  0
 20 21  2  0  0  0  0
 20 22  1  0  0  0  0
 22 23  1  0  0  0  0
 22 36  1  0  0  0  0
 23 24  2  0  0  0  0
 23 25  2  0  0  0  0
 26 23  1  0  0  0  0
 27 26  1  0  0  0  0
 28 26  1  0  0  0  0
 29 28  1  0  0  0  0
 30 29  1  0  0  0  0
 31 30  1  0  0  0  0
 32 31  1  0  0  0  0
 33 32  1  0  0  0  0
 34 35  2  0  0  0  0
 34 32  1  0  0  0  0
 37 42  1  0  0  0  0
 37 13  1  0  0  0  0
 38 37  1  0  0  0  0
 39 40  1  0  0  0  0
 39 38  1  0  0  0  0
 40 41  1  0  0  0  0
 41 42  1  0  0  0  0
 43 44  1  0  0  0  0
 44  1  1  0  0  0  0
M  END
>  <minimizedAffinity>
-4.83819818

$$$$
