
 OpenBabel09092210413D

 44 49  0  0  0  0  0  0  0  0999 V2000
    6.2110   -4.1190    0.5050 C   0  0  0  0  0  0  0  0  0  0  0  0
    5.2720   -3.2140    0.0320 C   0  0  0  0  0  3  0  0  0  0  0  0
    4.7490   -3.3660   -1.2540 C   0  0  0  0  0  3  0  0  0  0  0  0
    5.1340   -4.4290   -2.0920 C   0  0  0  0  0  0  0  0  0  0  0  0
    6.1130   -5.3470   -1.6250 C   0  0  0  0  0  0  0  0  0  0  0  0
    6.6240   -5.1680   -0.3230 C   0  0  0  0  0  3  0  0  0  0  0  0
    6.6230   -6.5040   -2.4330 C   0  0  0  0  0  0  0  0  0  0  0  0
    6.8830   -7.7920   -1.6880 C   0  0  0  0  0  1  0  0  0  0  0  0
    6.8220   -6.3610   -3.7630 C   0  0  0  0  0  0  0  0  0  0  0  0
    6.7160   -5.0580   -4.5020 C   0  0  0  0  0  2  0  0  0  0  0  0
    5.3170   -4.6650   -4.5770 N   0  0  0  0  0  0  0  0  0  0  0  0
    4.5400   -4.4720   -3.4500 C   0  0  0  0  0  0  0  0  0  0  0  0
    3.2220   -4.3250   -3.8960 C   0  0  0  0  0  0  0  0  0  0  0  0
    3.2650   -4.2760   -5.3370 C   0  0  0  0  0  0  0  0  0  0  0  0
    2.2950   -4.0640   -6.3480 C   0  0  0  0  0  3  0  0  0  0  0  0
    2.6600   -4.0850   -7.7000 C   0  0  0  0  0  3  0  0  0  0  0  0
    3.9760   -4.3570   -8.0530 C   0  0  0  0  0  0  0  0  0  0  0  0
    4.9680   -4.5400   -7.0830 C   0  0  0  0  0  3  0  0  0  0  0  0
    4.5850   -4.4990   -5.7300 C   0  0  0  0  0  0  0  0  0  0  0  0
    4.3800   -4.3820   -9.4710 C   0  0  0  0  0  0  0  0  0  0  0  0
    4.7490   -3.3650  -10.0370 O   0  0  0  0  0  0  0  0  0  0  0  0
    4.4880   -5.6380  -10.0980 N   0  0  0  0  0  0  0  0  0  0  0  0
    3.3080   -6.8060  -10.0610 S   0  0  0  0  0  0  0  0  0  0  0  0
    2.0430   -6.1440  -10.2710 O   0  0  0  0  0  0  0  0  0  0  0  0
    3.7490   -7.8730  -10.9280 O   0  0  0  0  0  0  0  0  0  0  0  0
    3.4010   -7.3400   -8.4840 N   0  0  0  0  0  0  0  0  0  0  0  0
    2.1430   -7.6260   -7.7850 C   0  0  0  0  0  1  0  0  0  0  0  0
    4.6340   -8.0260   -8.0290 C   0  0  0  0  0  2  0  0  0  0  0  0
    4.3870   -9.4290   -7.4770 C   0  0  0  0  0  2  0  0  0  0  0  0
    5.6150  -10.1290   -6.8790 C   0  0  0  0  0  2  0  0  0  0  0  0
    6.6670   -9.2740   -6.1630 C   0  0  0  0  0  2  0  0  0  0  0  0
    6.2720   -8.3900   -5.0610 N   0  0  0  0  0  0  0  0  0  0  0  0
    4.9340   -8.4860   -4.4850 C   0  0  0  0  0  1  0  0  0  0  0  0
    7.2410   -7.4710   -4.6550 C   0  0  0  0  0  0  0  0  0  0  0  0
    8.3910   -7.4610   -5.0920 O   0  0  0  0  0  0  0  0  0  0  0  0
    4.8130   -5.5330  -11.0570 H   0  0  0  0  0  0  0  0  0  0  0  0
    1.9860   -4.2330   -3.0230 C   0  0  0  0  0  3  0  0  0  0  0  0
    1.3460   -2.8350   -3.0410 C   0  0  0  0  0  2  0  0  0  0  0  0
    0.1230   -2.7710   -2.1280 C   0  0  0  0  0  2  0  0  0  0  0  0
   -0.8950   -3.8550   -2.4710 C   0  0  0  0  0  2  0  0  0  0  0  0
   -0.2650   -5.2450   -2.4480 C   0  0  0  0  0  2  0  0  0  0  0  0
    0.9560   -5.3260   -3.3620 C   0  0  0  0  0  2  0  0  0  0  0  0
    6.9990   -2.8130    2.3300 C   0  0  0  0  0  1  0  0  0  0  0  0
    6.8100   -4.0900    1.7340 O   0  0  0  0  0  0  0  0  0  0  0  0
  1 44  1  0  0  0  0
  2  1  1  0  0  0  0
  3  2  2  0  0  0  0
  4  5  2  0  0  0  0
  4  3  1  0  0  0  0
  5  6  1  0  0  0  0
  6  1  2  0  0  0  0
  7  8  1  0  0  0  0
  7  5  1  0  0  0  0
  9  7  2  0  0  0  0
 10  9  1  0  0  0  0
 11 10  1  0  0  0  0
 11 12  1  0  0  0  0
 12  4  1  0  0  0  0
 13 12  2  0  0  0  0
 13 37  1  0  0  0  0
 14 13  1  0  0  0  0
 15 14  2  0  0  0  0
 16 15  1  0  0  0  0
 17 16  2  0  0  0  0
 17 18  1  0  0  0  0
 18 19  2  0  0  0  0
 19 14  1  0  0  0  0
 19 11  1  0  0  0  0
 20 17  1  0  0  0  0
 21 20  2  0  0  0  0
 22 23  1  0  0  0  0
 22 20  1  0  0  0  0
 23 26  1  0  0  0  0
 24 23  2  0  0  0  0
 25 23  2  0  0  0  0
 26 28  1  0  0  0  0
 26 27  1  0  0  0  0
 28 29  1  0  0  0  0
 29 30  1  0  0  0  0
 30 31  1  0  0  0  0
 31 32  1  0  0  0  0
 32 34  1  0  0  0  0
 32 33  1  0  0  0  0
 34  9  1  0  0  0  0
 35 34  2  0  0  0  0
 36 22  1  0  0  0  0
 38 37  1  0  0  0  0
 38 39  1  0  0  0  0
 40 41  1  0  0  0  0
 40 39  1  0  0  0  0
 42 37  1  0  0  0  0
 42 41  1  0  0  0  0
 44 43  1  0  0  0  0
M  END
>  <minimizedAffinity>
-5.08381653

$$$$
