
 OpenBabel09092210413D

 44 49  0  0  0  0  0  0  0  0999 V2000
    6.3800   -5.5280    0.7660 C   0  0  0  0  0  0  0  0  0  0  0  0
    5.2780   -4.8030    1.1950 C   0  0  0  0  0  3  0  0  0  0  0  0
    4.3410   -4.3500    0.2640 C   0  0  0  0  0  3  0  0  0  0  0  0
    4.4690   -4.6230   -1.1110 C   0  0  0  0  0  0  0  0  0  0  0  0
    5.6070   -5.3450   -1.5620 C   0  0  0  0  0  0  0  0  0  0  0  0
    6.5370   -5.7880   -0.5990 C   0  0  0  0  0  3  0  0  0  0  0  0
    5.8670   -5.6740   -3.0020 C   0  0  0  0  0  0  0  0  0  0  0  0
    6.4590   -7.0330   -3.2930 C   0  0  0  0  0  1  0  0  0  0  0  0
    5.5690   -4.7720   -3.9650 C   0  0  0  0  0  0  0  0  0  0  0  0
    5.1220   -3.3630   -3.6990 C   0  0  0  0  0  2  0  0  0  0  0  0
    3.7660   -3.3840   -3.1700 N   0  0  0  0  0  0  0  0  0  0  0  0
    3.4330   -4.0630   -2.0130 C   0  0  0  0  0  0  0  0  0  0  0  0
    2.0360   -4.0510   -1.9340 C   0  0  0  0  0  0  0  0  0  0  0  0
    1.5580   -3.2040   -2.9990 C   0  0  0  0  0  0  0  0  0  0  0  0
    0.2790   -2.7360   -3.3910 C   0  0  0  0  0  3  0  0  0  0  0  0
    0.1370   -1.9070   -4.5110 C   0  0  0  0  0  3  0  0  0  0  0  0
    1.2550   -1.5750   -5.2670 C   0  0  0  0  0  0  0  0  0  0  0  0
    2.5390   -1.9910   -4.8930 C   0  0  0  0  0  3  0  0  0  0  0  0
    2.6620   -2.8100   -3.7560 C   0  0  0  0  0  0  0  0  0  0  0  0
    1.1270   -0.7020   -6.4480 C   0  0  0  0  0  0  0  0  0  0  0  0
    1.2030    0.5110   -6.3430 O   0  0  0  0  0  0  0  0  0  0  0  0
    1.0840   -1.3170   -7.7140 N   0  0  0  0  0  0  0  0  0  0  0  0
    0.0730   -2.5730   -8.1090 S   0  0  0  0  0  0  0  0  0  0  0  0
   -1.2230   -2.2720   -7.5500 O   0  0  0  0  0  0  0  0  0  0  0  0
    0.2430   -2.8170   -9.5220 O   0  0  0  0  0  0  0  0  0  0  0  0
    0.7580   -3.8430   -7.2720 N   0  0  0  0  0  0  0  0  0  0  0  0
   -0.1470   -4.7910   -6.6110 C   0  0  0  0  0  1  0  0  0  0  0  0
    2.1130   -4.3070   -7.6520 C   0  0  0  0  0  2  0  0  0  0  0  0
    2.1700   -5.7860   -8.0330 C   0  0  0  0  0  2  0  0  0  0  0  0
    3.5730   -6.3420   -8.3140 C   0  0  0  0  0  2  0  0  0  0  0  0
    4.7540   -5.7830   -7.5120 C   0  0  0  0  0  2  0  0  0  0  0  0
    4.7230   -5.8000   -6.0450 N   0  0  0  0  0  0  0  0  0  0  0  0
    3.6880   -6.5520   -5.3410 C   0  0  0  0  0  1  0  0  0  0  0  0
    5.7120   -5.0420   -5.4170 C   0  0  0  0  0  0  0  0  0  0  0  0
    6.6270   -4.4860   -6.0230 O   0  0  0  0  0  0  0  0  0  0  0  0
    1.0370   -0.6170   -8.4510 H   0  0  0  0  0  0  0  0  0  0  0  0
    1.1900   -4.7910   -0.9170 C   0  0  0  0  0  3  0  0  0  0  0  0
    0.4490   -3.8470    0.0430 C   0  0  0  0  0  2  0  0  0  0  0  0
   -0.3680   -4.6270    1.0720 C   0  0  0  0  0  2  0  0  0  0  0  0
   -1.3270   -5.6090    0.4040 C   0  0  0  0  0  2  0  0  0  0  0  0
   -0.5930   -6.5530   -0.5440 C   0  0  0  0  0  2  0  0  0  0  0  0
    0.2230   -5.7870   -1.5830 C   0  0  0  0  0  2  0  0  0  0  0  0
    7.6500   -7.4180    1.4540 C   0  0  0  0  0  1  0  0  0  0  0  0
    7.3760   -6.0260    1.5610 O   0  0  0  0  0  0  0  0  0  0  0  0
  1  2  1  0  0  0  0
  1 44  1  0  0  0  0
  3  2  2  0  0  0  0
  4  3  1  0  0  0  0
  5  4  2  0  0  0  0
  5  6  1  0  0  0  0
  6  1  2  0  0  0  0
  7  5  1  0  0  0  0
  8  7  1  0  0  0  0
  9 10  1  0  0  0  0
  9  7  2  0  0  0  0
 10 11  1  0  0  0  0
 11 12  1  0  0  0  0
 12 13  2  0  0  0  0
 12  4  1  0  0  0  0
 13 37  1  0  0  0  0
 14 13  1  0  0  0  0
 15 14  1  0  0  0  0
 16 15  2  0  0  0  0
 17 18  2  0  0  0  0
 17 16  1  0  0  0  0
 18 19  1  0  0  0  0
 19 11  1  0  0  0  0
 19 14  2  0  0  0  0
 20 21  2  0  0  0  0
 20 17  1  0  0  0  0
 22 20  1  0  0  0  0
 23 22  1  0  0  0  0
 23 24  2  0  0  0  0
 23 26  1  0  0  0  0
 25 23  2  0  0  0  0
 26 27  1  0  0  0  0
 28 26  1  0  0  0  0
 29 28  1  0  0  0  0
 30 29  1  0  0  0  0
 30 31  1  0  0  0  0
 31 32  1  0  0  0  0
 32 34  1  0  0  0  0
 32 33  1  0  0  0  0
 34  9  1  0  0  0  0
 35 34  2  0  0  0  0
 36 22  1  0  0  0  0
 37 38  1  0  0  0  0
 38 39  1  0  0  0  0
 40 39  1  0  0  0  0
 41 40  1  0  0  0  0
 42 37  1  0  0  0  0
 42 41  1  0  0  0  0
 43 44  1  0  0  0  0
M  END
>  <minimizedAffinity>
-4.7318182

$$$$
