
 OpenBabel09092210413D

 44 49  0  0  0  0  0  0  0  0999 V2000
    6.3900   -5.1730    0.2460 C   0  0  0  0  0  0  0  0  0  0  0  0
    5.2320   -4.4780   -0.0720 C   0  0  0  0  0  3  0  0  0  0  0  0
    4.7260   -4.5330   -1.3730 C   0  0  0  0  0  3  0  0  0  0  0  0
    5.3490   -5.2940   -2.3800 C   0  0  0  0  0  0  0  0  0  0  0  0
    6.5480   -5.9910   -2.0690 C   0  0  0  0  0  0  0  0  0  0  0  0
    7.0350   -5.9150   -0.7480 C   0  0  0  0  0  3  0  0  0  0  0  0
    7.3150   -6.8120   -3.0620 C   0  0  0  0  0  0  0  0  0  0  0  0
    7.9270   -8.0970   -2.5540 C   0  0  0  0  0  1  0  0  0  0  0  0
    7.4290   -6.3910   -4.3420 C   0  0  0  0  0  0  0  0  0  0  0  0
    6.9630   -5.0520   -4.8390 C   0  0  0  0  0  2  0  0  0  0  0  0
    5.5070   -5.0340   -4.8650 N   0  0  0  0  0  0  0  0  0  0  0  0
    4.7430   -5.2520   -3.7340 C   0  0  0  0  0  0  0  0  0  0  0  0
    3.4190   -5.3800   -4.1670 C   0  0  0  0  0  0  0  0  0  0  0  0
    3.4020   -5.0690   -5.5750 C   0  0  0  0  0  0  0  0  0  0  0  0
    2.3780   -4.9450   -6.5480 C   0  0  0  0  0  3  0  0  0  0  0  0
    2.6930   -4.6320   -7.8760 C   0  0  0  0  0  3  0  0  0  0  0  0
    4.0220   -4.4830   -8.2510 C   0  0  0  0  0  0  0  0  0  0  0  0
    5.0590   -4.5660   -7.3130 C   0  0  0  0  0  3  0  0  0  0  0  0
    4.7220   -4.8650   -5.9810 C   0  0  0  0  0  0  0  0  0  0  0  0
    4.3740   -4.1520   -9.6440 C   0  0  0  0  0  0  0  0  0  0  0  0
    4.4470   -2.9910  -10.0140 O   0  0  0  0  0  0  0  0  0  0  0  0
    4.7850   -5.2050  -10.4830 N   0  0  0  0  0  0  0  0  0  0  0  0
    3.9540   -6.6280  -10.6730 S   0  0  0  0  0  0  0  0  0  0  0  0
    2.5530   -6.2950  -10.7810 O   0  0  0  0  0  0  0  0  0  0  0  0
    4.6300   -7.3730  -11.7090 O   0  0  0  0  0  0  0  0  0  0  0  0
    4.2330   -7.3880   -9.2140 N   0  0  0  0  0  0  0  0  0  0  0  0
    3.1160   -8.1120   -8.5970 C   0  0  0  0  0  1  0  0  0  0  0  0
    5.6160   -7.7950   -8.8700 C   0  0  0  0  0  2  0  0  0  0  0  0
    5.7610   -9.2880   -8.5800 C   0  0  0  0  0  2  0  0  0  0  0  0
    7.1480   -9.7350   -8.0970 C   0  0  0  0  0  2  0  0  0  0  0  0
    7.9630   -8.7740   -7.2230 C   0  0  0  0  0  2  0  0  0  0  0  0
    7.3860   -8.2320   -5.9880 N   0  0  0  0  0  0  0  0  0  0  0  0
    6.1380   -8.7760   -5.4590 C   0  0  0  0  0  1  0  0  0  0  0  0
    8.0940   -7.1780   -5.4100 C   0  0  0  0  0  0  0  0  0  0  0  0
    9.1870   -6.7890   -5.8210 O   0  0  0  0  0  0  0  0  0  0  0  0
    5.0410   -4.8510  -11.4030 H   0  0  0  0  0  0  0  0  0  0  0  0
    2.2310   -5.7700   -3.3110 C   0  0  0  0  0  3  0  0  0  0  0  0
    1.2210   -4.6250   -3.1350 C   0  0  0  0  0  2  0  0  0  0  0  0
    0.0520   -5.0440   -2.2440 C   0  0  0  0  0  2  0  0  0  0  0  0
   -0.6250   -6.3120   -2.7590 C   0  0  0  0  0  2  0  0  0  0  0  0
    0.3740   -7.4530   -2.9280 C   0  0  0  0  0  2  0  0  0  0  0  0
    1.5440   -7.0500   -3.8230 C   0  0  0  0  0  2  0  0  0  0  0  0
    6.6200   -4.2030    2.4060 C   0  0  0  0  0  1  0  0  0  0  0  0
    6.9990   -5.2050    1.4710 O   0  0  0  0  0  0  0  0  0  0  0  0
  1 44  1  0  0  0  0
  2  1  1  0  0  0  0
  3  2  2  0  0  0  0
  4  5  2  0  0  0  0
  4  3  1  0  0  0  0
  5  6  1  0  0  0  0
  6  1  2  0  0  0  0
  7  8  1  0  0  0  0
  7  5  1  0  0  0  0
  9  7  2  0  0  0  0
 10  9  1  0  0  0  0
 11 10  1  0  0  0  0
 11 12  1  0  0  0  0
 12  4  1  0  0  0  0
 13 12  2  0  0  0  0
 13 37  1  0  0  0  0
 14 13  1  0  0  0  0
 15 14  2  0  0  0  0
 16 15  1  0  0  0  0
 17 16  2  0  0  0  0
 17 18  1  0  0  0  0
 18 19  2  0  0  0  0
 19 14  1  0  0  0  0
 19 11  1  0  0  0  0
 20 17  1  0  0  0  0
 21 20  2  0  0  0  0
 22 20  1  0  0  0  0
 23 22  1  0  0  0  0
 23 26  1  0  0  0  0
 24 23  2  0  0  0  0
 25 23  2  0  0  0  0
 26 28  1  0  0  0  0
 26 27  1  0  0  0  0
 28 29  1  0  0  0  0
 29 30  1  0  0  0  0
 30 31  1  0  0  0  0
 31 32  1  0  0  0  0
 32 33  1  0  0  0  0
 32 34  1  0  0  0  0
 34  9  1  0  0  0  0
 35 34  2  0  0  0  0
 36 22  1  0  0  0  0
 37 38  1  0  0  0  0
 38 39  1  0  0  0  0
 40 39  1  0  0  0  0
 41 40  1  0  0  0  0
 42 37  1  0  0  0  0
 42 41  1  0  0  0  0
 44 43  1  0  0  0  0
M  END
>  <minimizedAffinity>
-4.93589163

$$$$
