
 OpenBabel09092210413D

 44 49  0  0  0  0  0  0  0  0999 V2000
    8.2960   -7.1160   -6.1900 C   0  0  0  0  0  0  0  0  0  0  0  0
    8.1150   -5.9900   -5.4010 C   0  0  0  0  0  3  0  0  0  0  0  0
    6.9030   -5.2970   -5.4490 C   0  0  0  0  0  3  0  0  0  0  0  0
    5.8390   -5.7170   -6.2700 C   0  0  0  0  0  0  0  0  0  0  0  0
    6.0250   -6.8560   -7.1000 C   0  0  0  0  0  0  0  0  0  0  0  0
    7.2590   -7.5340   -7.0300 C   0  0  0  0  0  3  0  0  0  0  0  0
    4.9770   -7.3850   -8.0340 C   0  0  0  0  0  0  0  0  0  0  0  0
    4.8650   -8.8870   -8.1500 C   0  0  0  0  0  1  0  0  0  0  0  0
    4.1890   -6.5260   -8.7190 C   0  0  0  0  0  0  0  0  0  0  0  0
    4.3740   -5.0350   -8.7390 C   0  0  0  0  0  2  0  0  0  0  0  0
    3.9990   -4.4900   -7.4430 N   0  0  0  0  0  0  0  0  0  0  0  0
    4.6110   -4.8860   -6.2680 C   0  0  0  0  0  0  0  0  0  0  0  0
    3.8610   -4.3340   -5.2240 C   0  0  0  0  0  0  0  0  0  0  0  0
    2.8770   -3.4650   -5.8210 C   0  0  0  0  0  0  0  0  0  0  0  0
    1.8970   -2.5800   -5.3070 C   0  0  0  0  0  3  0  0  0  0  0  0
    1.0620   -1.8620   -6.1720 C   0  0  0  0  0  3  0  0  0  0  0  0
    1.1690   -2.0500   -7.5450 C   0  0  0  0  0  0  0  0  0  0  0  0
    2.1460   -2.8910   -8.0920 C   0  0  0  0  0  3  0  0  0  0  0  0
    2.9850   -3.5920   -7.2070 C   0  0  0  0  0  0  0  0  0  0  0  0
    0.3010   -1.3020   -8.4720 C   0  0  0  0  0  0  0  0  0  0  0  0
    0.6310   -0.2060   -8.8950 O   0  0  0  0  0  0  0  0  0  0  0  0
   -0.8330   -1.9630   -8.9830 N   0  0  0  0  0  0  0  0  0  0  0  0
   -1.9460   -2.7660   -8.0510 S   0  0  0  0  0  0  0  0  0  0  0  0
   -2.2090   -1.9450   -6.8930 O   0  0  0  0  0  0  0  0  0  0  0  0
   -3.0110   -3.1800   -8.9340 O   0  0  0  0  0  0  0  0  0  0  0  0
   -1.0930   -4.1230   -7.5870 N   0  0  0  0  0  0  0  0  0  0  0  0
   -1.2530   -4.5910   -6.2060 C   0  0  0  0  0  1  0  0  0  0  0  0
   -0.6820   -5.1010   -8.6220 C   0  0  0  0  0  2  0  0  0  0  0  0
   -1.1980   -6.5160   -8.3670 C   0  0  0  0  0  2  0  0  0  0  0  0
   -0.6950   -7.5890   -9.3430 C   0  0  0  0  0  2  0  0  0  0  0  0
    0.7250   -7.4560   -9.9060 C   0  0  0  0  0  2  0  0  0  0  0  0
    1.8700   -7.3310   -8.9970 N   0  0  0  0  0  0  0  0  0  0  0  0
    1.7000   -7.5650   -7.5650 C   0  0  0  0  0  1  0  0  0  0  0  0
    3.0720   -6.9570   -9.5970 C   0  0  0  0  0  0  0  0  0  0  0  0
    3.2170   -6.8480  -10.8140 O   0  0  0  0  0  0  0  0  0  0  0  0
   -1.3300   -1.3650   -9.6420 H   0  0  0  0  0  0  0  0  0  0  0  0
    4.0520   -4.6020   -3.7440 C   0  0  0  0  0  3  0  0  0  0  0  0
    4.5380   -3.3660   -2.9720 C   0  0  0  0  0  2  0  0  0  0  0  0
    4.7490   -3.6800   -1.4910 C   0  0  0  0  0  2  0  0  0  0  0  0
    3.4960   -4.2780   -0.8570 C   0  0  0  0  0  2  0  0  0  0  0  0
    3.0150   -5.5100   -1.6170 C   0  0  0  0  0  2  0  0  0  0  0  0
    2.7930   -5.2090   -3.0980 C   0  0  0  0  0  2  0  0  0  0  0  0
    9.8630   -8.2910   -7.5400 C   0  0  0  0  0  1  0  0  0  0  0  0
    9.4250   -7.8850   -6.2490 O   0  0  0  0  0  0  0  0  0  0  0  0
  1  2  1  0  0  0  0
  3  2  2  0  0  0  0
  4 12  1  0  0  0  0
  4  3  1  0  0  0  0
  5  6  1  0  0  0  0
  5  4  2  0  0  0  0
  6  1  2  0  0  0  0
  7  5  1  0  0  0  0
  8  7  1  0  0  0  0
  9  7  2  0  0  0  0
 10  9  1  0  0  0  0
 10 11  1  0  0  0  0
 11 19  1  0  0  0  0
 11 12  1  0  0  0  0
 12 13  2  0  0  0  0
 13 37  1  0  0  0  0
 14 15  1  0  0  0  0
 14 13  1  0  0  0  0
 16 15  2  0  0  0  0
 17 16  1  0  0  0  0
 18 17  2  0  0  0  0
 18 19  1  0  0  0  0
 19 14  2  0  0  0  0
 20 17  1  0  0  0  0
 21 20  2  0  0  0  0
 22 20  1  0  0  0  0
 22 23  1  0  0  0  0
 23 26  1  0  0  0  0
 23 24  2  0  0  0  0
 25 23  2  0  0  0  0
 26 27  1  0  0  0  0
 28 29  1  0  0  0  0
 28 26  1  0  0  0  0
 30 29  1  0  0  0  0
 31 30  1  0  0  0  0
 31 32  1  0  0  0  0
 32 33  1  0  0  0  0
 34 32  1  0  0  0  0
 34  9  1  0  0  0  0
 35 34  2  0  0  0  0
 36 22  1  0  0  0  0
 37 42  1  0  0  0  0
 37 38  1  0  0  0  0
 38 39  1  0  0  0  0
 39 40  1  0  0  0  0
 41 40  1  0  0  0  0
 42 41  1  0  0  0  0
 43 44  1  0  0  0  0
 44  1  1  0  0  0  0
M  END
>  <minimizedAffinity>
-4.62781477

$$$$
