
 OpenBabel09092210413D

 44 49  0  0  0  0  0  0  0  0999 V2000
    1.7220   -2.2400   -5.7390 C   0  0  0  0  0  0  0  0  0  0  0  0
    2.1240   -2.5860   -7.0200 C   0  0  0  0  0  3  0  0  0  0  0  0
    3.0550   -3.6120   -7.2020 C   0  0  0  0  0  3  0  0  0  0  0  0
    3.5910   -4.3280   -6.1150 C   0  0  0  0  0  0  0  0  0  0  0  0
    3.2020   -3.9650   -4.7980 C   0  0  0  0  0  0  0  0  0  0  0  0
    2.2620   -2.9250   -4.6460 C   0  0  0  0  0  3  0  0  0  0  0  0
    3.7230   -4.6350   -3.5610 C   0  0  0  0  0  0  0  0  0  0  0  0
    2.7370   -4.8520   -2.4380 C   0  0  0  0  0  1  0  0  0  0  0  0
    5.0190   -5.0160   -3.4960 C   0  0  0  0  0  0  0  0  0  0  0  0
    6.0560   -4.6820   -4.5310 C   0  0  0  0  0  2  0  0  0  0  0  0
    5.7930   -5.4570   -5.7350 N   0  0  0  0  0  0  0  0  0  0  0  0
    4.5970   -5.3740   -6.4230 C   0  0  0  0  0  0  0  0  0  0  0  0
    4.6150   -6.3990   -7.3750 C   0  0  0  0  0  0  0  0  0  0  0  0
    5.9300   -6.9910   -7.3370 C   0  0  0  0  0  0  0  0  0  0  0  0
    6.5840   -7.9940   -8.0940 C   0  0  0  0  0  3  0  0  0  0  0  0
    7.9020   -8.3650   -7.7960 C   0  0  0  0  0  3  0  0  0  0  0  0
    8.5570   -7.7720   -6.7230 C   0  0  0  0  0  0  0  0  0  0  0  0
    7.9550   -6.7550   -5.9730 C   0  0  0  0  0  3  0  0  0  0  0  0
    6.6370   -6.3860   -6.2970 C   0  0  0  0  0  0  0  0  0  0  0  0
    9.9440   -8.1470   -6.3950 C   0  0  0  0  0  0  0  0  0  0  0  0
   10.8890   -7.5700   -6.9100 O   0  0  0  0  0  0  0  0  0  0  0  0
   10.1430   -9.0690   -5.3500 N   0  0  0  0  0  0  0  0  0  0  0  0
    9.3600  -10.5270   -5.2280 S   0  0  0  0  0  0  0  0  0  0  0  0
    9.3460  -11.1170   -6.5460 O   0  0  0  0  0  0  0  0  0  0  0  0
    9.9400  -11.2210   -4.1020 O   0  0  0  0  0  0  0  0  0  0  0  0
    7.8150  -10.0560   -4.8140 N   0  0  0  0  0  0  0  0  0  0  0  0
    6.6930  -10.7700   -5.4370 C   0  0  0  0  0  1  0  0  0  0  0  0
    7.5920   -9.3920   -3.5080 C   0  0  0  0  0  2  0  0  0  0  0  0
    6.5770  -10.1100   -2.6200 C   0  0  0  0  0  2  0  0  0  0  0  0
    6.2200   -9.3920   -1.3110 C   0  0  0  0  0  2  0  0  0  0  0  0
    6.1910   -7.8590   -1.3020 C   0  0  0  0  0  2  0  0  0  0  0  0
    5.3600   -7.1330   -2.2670 N   0  0  0  0  0  0  0  0  0  0  0  0
    4.3820   -7.8490   -3.0820 C   0  0  0  0  0  1  0  0  0  0  0  0
    5.6000   -5.7610   -2.3500 C   0  0  0  0  0  0  0  0  0  0  0  0
    6.3660   -5.1600   -1.5970 O   0  0  0  0  0  0  0  0  0  0  0  0
   11.1370   -9.2170   -5.1860 H   0  0  0  0  0  0  0  0  0  0  0  0
    3.4650   -6.8040   -8.2760 C   0  0  0  0  0  3  0  0  0  0  0  0
    3.7180   -6.4680   -9.7540 C   0  0  0  0  0  2  0  0  0  0  0  0
    2.5280   -6.8630  -10.6280 C   0  0  0  0  0  2  0  0  0  0  0  0
    2.1570   -8.3320  -10.4450 C   0  0  0  0  0  2  0  0  0  0  0  0
    1.8970   -8.6680   -8.9800 C   0  0  0  0  0  2  0  0  0  0  0  0
    3.0820   -8.2850   -8.0950 C   0  0  0  0  0  2  0  0  0  0  0  0
    0.6160   -1.0120   -4.0280 C   0  0  0  0  0  1  0  0  0  0  0  0
    0.8280   -1.2580   -5.4130 O   0  0  0  0  0  0  0  0  0  0  0  0
  1 44  1  0  0  0  0
  1  6  1  0  0  0  0
  2  1  2  0  0  0  0
  3  2  1  0  0  0  0
  3  4  2  0  0  0  0
  4  5  1  0  0  0  0
  5  6  2  0  0  0  0
  5  7  1  0  0  0  0
  7  9  2  0  0  0  0
  7  8  1  0  0  0  0
  9 34  1  0  0  0  0
 10  9  1  0  0  0  0
 11 10  1  0  0  0  0
 12  4  1  0  0  0  0
 12 11  1  0  0  0  0
 13 14  1  0  0  0  0
 13 12  2  0  0  0  0
 14 19  1  0  0  0  0
 15 16  1  0  0  0  0
 15 14  2  0  0  0  0
 16 17  2  0  0  0  0
 17 20  1  0  0  0  0
 17 18  1  0  0  0  0
 19 18  2  0  0  0  0
 19 11  1  0  0  0  0
 20 22  1  0  0  0  0
 21 20  2  0  0  0  0
 22 23  1  0  0  0  0
 22 36  1  0  0  0  0
 23 26  1  0  0  0  0
 23 25  2  0  0  0  0
 24 23  2  0  0  0  0
 26 28  1  0  0  0  0
 27 26  1  0  0  0  0
 28 29  1  0  0  0  0
 29 30  1  0  0  0  0
 30 31  1  0  0  0  0
 32 31  1  0  0  0  0
 33 32  1  0  0  0  0
 34 32  1  0  0  0  0
 34 35  2  0  0  0  0
 37 42  1  0  0  0  0
 37 13  1  0  0  0  0
 38 37  1  0  0  0  0
 39 40  1  0  0  0  0
 39 38  1  0  0  0  0
 40 41  1  0  0  0  0
 41 42  1  0  0  0  0
 44 43  1  0  0  0  0
M  END
>  <minimizedAffinity>
-4.50877619

$$$$
