
 OpenBabel09092210413D

 44 49  0  0  0  0  0  0  0  0999 V2000
    6.3830   -5.5060    0.7970 C   0  0  0  0  0  0  0  0  0  0  0  0
    5.2830   -4.7770    1.2240 C   0  0  0  0  0  3  0  0  0  0  0  0
    4.3450   -4.3260    0.2920 C   0  0  0  0  0  3  0  0  0  0  0  0
    4.4710   -4.6050   -1.0830 C   0  0  0  0  0  0  0  0  0  0  0  0
    5.6070   -5.3300   -1.5320 C   0  0  0  0  0  0  0  0  0  0  0  0
    6.5380   -5.7710   -0.5680 C   0  0  0  0  0  3  0  0  0  0  0  0
    5.8660   -5.6660   -2.9710 C   0  0  0  0  0  0  0  0  0  0  0  0
    6.4540   -7.0270   -3.2570 C   0  0  0  0  0  1  0  0  0  0  0  0
    5.5680   -4.7670   -3.9370 C   0  0  0  0  0  0  0  0  0  0  0  0
    5.1240   -3.3560   -3.6760 C   0  0  0  0  0  2  0  0  0  0  0  0
    3.7690   -3.3730   -3.1450 N   0  0  0  0  0  0  0  0  0  0  0  0
    3.4350   -4.0470   -1.9850 C   0  0  0  0  0  0  0  0  0  0  0  0
    2.0390   -4.0320   -1.9050 C   0  0  0  0  0  0  0  0  0  0  0  0
    1.5600   -3.1880   -2.9720 C   0  0  0  0  0  0  0  0  0  0  0  0
    0.2820   -2.7190   -3.3650 C   0  0  0  0  0  3  0  0  0  0  0  0
    0.1410   -1.8940   -4.4880 C   0  0  0  0  0  3  0  0  0  0  0  0
    1.2580   -1.5680   -5.2470 C   0  0  0  0  0  0  0  0  0  0  0  0
    2.5410   -1.9850   -4.8720 C   0  0  0  0  0  3  0  0  0  0  0  0
    2.6650   -2.7990   -3.7320 C   0  0  0  0  0  0  0  0  0  0  0  0
    1.1310   -0.7000   -6.4310 C   0  0  0  0  0  0  0  0  0  0  0  0
    1.2090    0.5140   -6.3310 O   0  0  0  0  0  0  0  0  0  0  0  0
    1.0850   -1.3190   -7.6940 N   0  0  0  0  0  0  0  0  0  0  0  0
    0.0710   -2.5750   -8.0840 S   0  0  0  0  0  0  0  0  0  0  0  0
   -1.2240   -2.2700   -7.5250 O   0  0  0  0  0  0  0  0  0  0  0  0
    0.2390   -2.8250   -9.4960 O   0  0  0  0  0  0  0  0  0  0  0  0
    0.7550   -3.8430   -7.2420 N   0  0  0  0  0  0  0  0  0  0  0  0
   -0.1510   -4.7870   -6.5760 C   0  0  0  0  0  1  0  0  0  0  0  0
    2.1090   -4.3110   -7.6220 C   0  0  0  0  0  2  0  0  0  0  0  0
    2.1630   -5.7910   -7.9980 C   0  0  0  0  0  2  0  0  0  0  0  0
    3.5640   -6.3510   -8.2770 C   0  0  0  0  0  2  0  0  0  0  0  0
    4.7470   -5.7910   -7.4790 C   0  0  0  0  0  2  0  0  0  0  0  0
    4.7180   -5.8030   -6.0120 N   0  0  0  0  0  0  0  0  0  0  0  0
    3.6820   -6.5500   -5.3040 C   0  0  0  0  0  1  0  0  0  0  0  0
    5.7090   -5.0440   -5.3880 C   0  0  0  0  0  0  0  0  0  0  0  0
    6.6240   -4.4910   -5.9970 O   0  0  0  0  0  0  0  0  0  0  0  0
    1.0390   -0.6220   -8.4350 H   0  0  0  0  0  0  0  0  0  0  0  0
    1.1920   -4.7670   -0.8840 C   0  0  0  0  0  3  0  0  0  0  0  0
    0.4580   -3.8170    0.0760 C   0  0  0  0  0  2  0  0  0  0  0  0
   -0.3600   -4.5920    1.1090 C   0  0  0  0  0  2  0  0  0  0  0  0
   -1.3240   -5.5710    0.4460 C   0  0  0  0  0  2  0  0  0  0  0  0
   -0.5980   -6.5200   -0.5020 C   0  0  0  0  0  2  0  0  0  0  0  0
    0.2190   -5.7600   -1.5450 C   0  0  0  0  0  2  0  0  0  0  0  0
    7.6680   -7.3900    1.4720 C   0  0  0  0  0  1  0  0  0  0  0  0
    7.3780   -6.0030    1.5920 O   0  0  0  0  0  0  0  0  0  0  0  0
  1  2  1  0  0  0  0
  1 44  1  0  0  0  0
  3  2  2  0  0  0  0
  4  3  1  0  0  0  0
  5  4  2  0  0  0  0
  5  6  1  0  0  0  0
  6  1  2  0  0  0  0
  7  5  1  0  0  0  0
  8  7  1  0  0  0  0
  9 10  1  0  0  0  0
  9  7  2  0  0  0  0
 10 11  1  0  0  0  0
 11 12  1  0  0  0  0
 12 13  2  0  0  0  0
 12  4  1  0  0  0  0
 13 37  1  0  0  0  0
 14 13  1  0  0  0  0
 15 14  1  0  0  0  0
 16 15  2  0  0  0  0
 17 18  2  0  0  0  0
 17 16  1  0  0  0  0
 18 19  1  0  0  0  0
 19 11  1  0  0  0  0
 19 14  2  0  0  0  0
 20 21  2  0  0  0  0
 20 17  1  0  0  0  0
 22 20  1  0  0  0  0
 23 22  1  0  0  0  0
 23 24  2  0  0  0  0
 23 26  1  0  0  0  0
 25 23  2  0  0  0  0
 26 27  1  0  0  0  0
 28 26  1  0  0  0  0
 29 28  1  0  0  0  0
 30 29  1  0  0  0  0
 30 31  1  0  0  0  0
 31 32  1  0  0  0  0
 32 34  1  0  0  0  0
 32 33  1  0  0  0  0
 34  9  1  0  0  0  0
 35 34  2  0  0  0  0
 36 22  1  0  0  0  0
 37 38  1  0  0  0  0
 38 39  1  0  0  0  0
 40 39  1  0  0  0  0
 41 40  1  0  0  0  0
 42 37  1  0  0  0  0
 42 41  1  0  0  0  0
 43 44  1  0  0  0  0
M  END
>  <minimizedAffinity>
-4.73828697

$$$$
