
 OpenBabel09092210413D

 44 49  0  0  0  0  0  0  0  0999 V2000
    2.6810   -3.7610   -9.9810 C   0  0  0  0  0  0  0  0  0  0  0  0
    3.9950   -4.0470   -9.6430 C   0  0  0  0  0  3  0  0  0  0  0  0
    4.3340   -4.2740   -8.3070 C   0  0  0  0  0  3  0  0  0  0  0  0
    3.3710   -4.2390   -7.2800 C   0  0  0  0  0  0  0  0  0  0  0  0
    2.0270   -3.9230   -7.6140 C   0  0  0  0  0  0  0  0  0  0  0  0
    1.7150   -3.6980   -8.9710 C   0  0  0  0  0  3  0  0  0  0  0  0
    0.9190   -3.8300   -6.6080 C   0  0  0  0  0  0  0  0  0  0  0  0
   -0.4300   -4.3650   -7.0300 C   0  0  0  0  0  1  0  0  0  0  0  0
    1.1560   -3.2910   -5.3910 C   0  0  0  0  0  0  0  0  0  0  0  0
    2.4400   -2.6180   -4.9960 C   0  0  0  0  0  2  0  0  0  0  0  0
    3.4820   -3.6250   -4.8560 N   0  0  0  0  0  0  0  0  0  0  0  0
    3.8500   -4.4610   -5.8940 C   0  0  0  0  0  0  0  0  0  0  0  0
    4.7020   -5.4250   -5.3450 C   0  0  0  0  0  0  0  0  0  0  0  0
    4.9560   -5.0380   -3.9790 C   0  0  0  0  0  0  0  0  0  0  0  0
    5.7820   -5.5460   -2.9450 C   0  0  0  0  0  3  0  0  0  0  0  0
    5.8020   -4.9350   -1.6850 C   0  0  0  0  0  3  0  0  0  0  0  0
    4.9740   -3.8470   -1.4350 C   0  0  0  0  0  0  0  0  0  0  0  0
    4.1680   -3.2980   -2.4400 C   0  0  0  0  0  3  0  0  0  0  0  0
    4.1740   -3.9160   -3.7030 C   0  0  0  0  0  0  0  0  0  0  0  0
    4.9810   -3.1890   -0.1160 C   0  0  0  0  0  0  0  0  0  0  0  0
    5.7570   -2.2780    0.1270 O   0  0  0  0  0  0  0  0  0  0  0  0
    3.9590   -3.5280    0.7900 N   0  0  0  0  0  0  0  0  0  0  0  0
    3.5420   -5.0850    1.1900 S   0  0  0  0  0  0  0  0  0  0  0  0
    4.7690   -5.8220    1.3760 O   0  0  0  0  0  0  0  0  0  0  0  0
    2.5540   -4.9960    2.2390 O   0  0  0  0  0  0  0  0  0  0  0  0
    2.7850   -5.6070   -0.2010 N   0  0  0  0  0  0  0  0  0  0  0  0
    3.0530   -6.9790   -0.6500 C   0  0  0  0  0  1  0  0  0  0  0  0
    1.5140   -4.9650   -0.6120 C   0  0  0  0  0  2  0  0  0  0  0  0
    0.3510   -5.9440   -0.7590 C   0  0  0  0  0  2  0  0  0  0  0  0
   -0.9530   -5.3450   -1.3040 C   0  0  0  0  0  2  0  0  0  0  0  0
   -0.8620   -4.2120   -2.3330 C   0  0  0  0  0  2  0  0  0  0  0  0
   -0.0900   -4.3970   -3.5670 N   0  0  0  0  0  0  0  0  0  0  0  0
    0.3990   -5.7230   -3.9360 C   0  0  0  0  0  1  0  0  0  0  0  0
    0.1460   -3.2360   -4.3040 C   0  0  0  0  0  0  0  0  0  0  0  0
   -0.3450   -2.1440   -4.0250 O   0  0  0  0  0  0  0  0  0  0  0  0
    4.0420   -2.9830    1.6460 H   0  0  0  0  0  0  0  0  0  0  0  0
    5.2530   -6.6440   -6.0580 C   0  0  0  0  0  3  0  0  0  0  0  0
    6.7770   -6.5860   -6.2490 C   0  0  0  0  0  2  0  0  0  0  0  0
    7.2920   -7.8140   -6.9970 C   0  0  0  0  0  2  0  0  0  0  0  0
    6.8640   -9.1110   -6.3150 C   0  0  0  0  0  2  0  0  0  0  0  0
    5.3510   -9.1750   -6.1310 C   0  0  0  0  0  2  0  0  0  0  0  0
    4.8220   -7.9560   -5.3790 C   0  0  0  0  0  2  0  0  0  0  0  0
    1.3650   -2.3790  -11.4010 C   0  0  0  0  0  1  0  0  0  0  0  0
    2.2080   -3.5120  -11.2400 O   0  0  0  0  0  0  0  0  0  0  0  0
  1  2  2  0  0  0  0
  1  6  1  0  0  0  0
  2  3  1  0  0  0  0
  3  4  2  0  0  0  0
  4 12  1  0  0  0  0
  5  4  1  0  0  0  0
  5  7  1  0  0  0  0
  6  5  2  0  0  0  0
  7  9  2  0  0  0  0
  8  7  1  0  0  0  0
  9 10  1  0  0  0  0
  9 34  1  0  0  0  0
 10 11  1  0  0  0  0
 11 19  1  0  0  0  0
 12 13  2  0  0  0  0
 12 11  1  0  0  0  0
 13 14  1  0  0  0  0
 14 19  2  0  0  0  0
 14 15  1  0  0  0  0
 15 16  2  0  0  0  0
 16 17  1  0  0  0  0
 17 20  1  0  0  0  0
 18 17  2  0  0  0  0
 19 18  1  0  0  0  0
 20 21  2  0  0  0  0
 20 22  1  0  0  0  0
 22 23  1  0  0  0  0
 22 36  1  0  0  0  0
 23 24  2  0  0  0  0
 23 25  2  0  0  0  0
 26 23  1  0  0  0  0
 27 26  1  0  0  0  0
 28 26  1  0  0  0  0
 29 28  1  0  0  0  0
 30 29  1  0  0  0  0
 31 30  1  0  0  0  0
 32 31  1  0  0  0  0
 33 32  1  0  0  0  0
 34 35  2  0  0  0  0
 34 32  1  0  0  0  0
 37 42  1  0  0  0  0
 37 13  1  0  0  0  0
 38 37  1  0  0  0  0
 39 40  1  0  0  0  0
 39 38  1  0  0  0  0
 40 41  1  0  0  0  0
 41 42  1  0  0  0  0
 43 44  1  0  0  0  0
 44  1  1  0  0  0  0
M  END
>  <minimizedAffinity>
-4.84143209

$$$$
