
 OpenBabel09092210413D

 44 49  0  0  0  0  0  0  0  0999 V2000
    8.8470   -7.8650   -6.9120 C   0  0  0  0  0  0  0  0  0  0  0  0
    9.0060   -7.1710   -5.7220 C   0  0  0  0  0  3  0  0  0  0  0  0
    7.9200   -6.4940   -5.1630 C   0  0  0  0  0  3  0  0  0  0  0  0
    6.6480   -6.5060   -5.7650 C   0  0  0  0  0  0  0  0  0  0  0  0
    6.4810   -7.1960   -6.9960 C   0  0  0  0  0  0  0  0  0  0  0  0
    7.5960   -7.8690   -7.5370 C   0  0  0  0  0  3  0  0  0  0  0  0
    5.1830   -7.2590   -7.7460 C   0  0  0  0  0  0  0  0  0  0  0  0
    4.8480   -8.5710   -8.4160 C   0  0  0  0  0  1  0  0  0  0  0  0
    4.3770   -6.1740   -7.7930 C   0  0  0  0  0  0  0  0  0  0  0  0
    4.7490   -4.8170   -7.2660 C   0  0  0  0  0  2  0  0  0  0  0  0
    4.7640   -4.8580   -5.8110 N   0  0  0  0  0  0  0  0  0  0  0  0
    5.5760   -5.7240   -5.1020 C   0  0  0  0  0  0  0  0  0  0  0  0
    5.1710   -5.6440   -3.7660 C   0  0  0  0  0  0  0  0  0  0  0  0
    4.1990   -4.5820   -3.6790 C   0  0  0  0  0  0  0  0  0  0  0  0
    3.4930   -3.9720   -2.6130 C   0  0  0  0  0  3  0  0  0  0  0  0
    2.5820   -2.9380   -2.8610 C   0  0  0  0  0  3  0  0  0  0  0  0
    2.3380   -2.5350   -4.1690 C   0  0  0  0  0  0  0  0  0  0  0  0
    3.0390   -3.0920   -5.2460 C   0  0  0  0  0  3  0  0  0  0  0  0
    3.9620   -4.1180   -4.9740 C   0  0  0  0  0  0  0  0  0  0  0  0
    1.3850   -1.4480   -4.4510 C   0  0  0  0  0  0  0  0  0  0  0  0
    1.7490   -0.2830   -4.4730 O   0  0  0  0  0  0  0  0  0  0  0  0
    0.0850   -1.8060   -4.8590 N   0  0  0  0  0  0  0  0  0  0  0  0
   -0.8750   -2.9010   -4.0630 S   0  0  0  0  0  0  0  0  0  0  0  0
   -0.7480   -2.6350   -2.6500 O   0  0  0  0  0  0  0  0  0  0  0  0
   -2.1620   -2.8810   -4.7170 O   0  0  0  0  0  0  0  0  0  0  0  0
   -0.1250   -4.3460   -4.4260 N   0  0  0  0  0  0  0  0  0  0  0  0
   -0.0180   -5.3470   -3.3580 C   0  0  0  0  0  1  0  0  0  0  0  0
   -0.1020   -4.8090   -5.8340 C   0  0  0  0  0  2  0  0  0  0  0  0
   -0.7270   -6.1880   -6.0360 C   0  0  0  0  0  2  0  0  0  0  0  0
   -0.6130   -6.7630   -7.4540 C   0  0  0  0  0  2  0  0  0  0  0  0
    0.6400   -6.4400   -8.2760 C   0  0  0  0  0  2  0  0  0  0  0  0
    1.9720   -6.7340   -7.7360 N   0  0  0  0  0  0  0  0  0  0  0  0
    2.1130   -7.5440   -6.5280 C   0  0  0  0  0  1  0  0  0  0  0  0
    3.0390   -6.1710   -8.4360 C   0  0  0  0  0  0  0  0  0  0  0  0
    2.9080   -5.5640   -9.4980 O   0  0  0  0  0  0  0  0  0  0  0  0
   -0.4680   -0.9760   -5.0650 H   0  0  0  0  0  0  0  0  0  0  0  0
    5.6660   -6.5130   -2.6260 C   0  0  0  0  0  3  0  0  0  0  0  0
    6.3590   -5.7050   -1.5180 C   0  0  0  0  0  2  0  0  0  0  0  0
    6.8710   -6.6140   -0.4020 C   0  0  0  0  0  2  0  0  0  0  0  0
    5.7610   -7.4970    0.1620 C   0  0  0  0  0  2  0  0  0  0  0  0
    5.0750   -8.3060   -0.9350 C   0  0  0  0  0  2  0  0  0  0  0  0
    4.5520   -7.4090   -2.0550 C   0  0  0  0  0  2  0  0  0  0  0  0
   11.1690   -8.2410   -7.2650 C   0  0  0  0  0  1  0  0  0  0  0  0
    9.8180   -8.5650   -7.5730 O   0  0  0  0  0  0  0  0  0  0  0  0
  1  2  1  0  0  0  0
  2  3  2  0  0  0  0
  4  3  1  0  0  0  0
  4 12  1  0  0  0  0
  5  4  2  0  0  0  0
  6  5  1  0  0  0  0
  6  1  2  0  0  0  0
  7  5  1  0  0  0  0
  8  7  1  0  0  0  0
  9  7  2  0  0  0  0
  9 10  1  0  0  0  0
 10 11  1  0  0  0  0
 11 12  1  0  0  0  0
 11 19  1  0  0  0  0
 12 13  2  0  0  0  0
 13 14  1  0  0  0  0
 13 37  1  0  0  0  0
 14 15  1  0  0  0  0
 16 15  2  0  0  0  0
 17 16  1  0  0  0  0
 18 19  1  0  0  0  0
 18 17  2  0  0  0  0
 19 14  2  0  0  0  0
 20 17  1  0  0  0  0
 21 20  2  0  0  0  0
 22 20  1  0  0  0  0
 22 23  1  0  0  0  0
 23 24  2  0  0  0  0
 25 23  2  0  0  0  0
 26 23  1  0  0  0  0
 26 27  1  0  0  0  0
 28 26  1  0  0  0  0
 29 28  1  0  0  0  0
 30 29  1  0  0  0  0
 31 32  1  0  0  0  0
 31 30  1  0  0  0  0
 32 33  1  0  0  0  0
 34  9  1  0  0  0  0
 34 32  1  0  0  0  0
 35 34  2  0  0  0  0
 36 22  1  0  0  0  0
 37 42  1  0  0  0  0
 37 38  1  0  0  0  0
 38 39  1  0  0  0  0
 39 40  1  0  0  0  0
 41 40  1  0  0  0  0
 42 41  1  0  0  0  0
 44 43  1  0  0  0  0
 44  1  1  0  0  0  0
M  END
>  <minimizedAffinity>
-4.78889418

$$$$
