
 OpenBabel09092210413D

 44 49  0  0  0  0  0  0  0  0999 V2000
   -0.4740   -1.5410   -0.8220 C   0  0  0  0  0  0  0  0  0  0  0  0
   -0.3360   -1.2680   -2.1750 C   0  0  0  0  0  3  0  0  0  0  0  0
    0.6450   -1.9280   -2.9190 C   0  0  0  0  0  3  0  0  0  0  0  0
    1.4970   -2.8870   -2.3390 C   0  0  0  0  0  0  0  0  0  0  0  0
    1.3770   -3.1560   -0.9490 C   0  0  0  0  0  0  0  0  0  0  0  0
    0.3790   -2.4720   -0.2240 C   0  0  0  0  0  3  0  0  0  0  0  0
    2.2440   -4.1350   -0.2130 C   0  0  0  0  0  0  0  0  0  0  0  0
    1.5730   -4.9690    0.8520 C   0  0  0  0  0  1  0  0  0  0  0  0
    3.5560   -4.2380   -0.5210 C   0  0  0  0  0  0  0  0  0  0  0  0
    4.2820   -3.3220   -1.4650 C   0  0  0  0  0  2  0  0  0  0  0  0
    3.8460   -3.5990   -2.8260 N   0  0  0  0  0  0  0  0  0  0  0  0
    2.5240   -3.5000   -3.2160 C   0  0  0  0  0  0  0  0  0  0  0  0
    2.4470   -4.0430   -4.5030 C   0  0  0  0  0  0  0  0  0  0  0  0
    3.7970   -4.3220   -4.9270 C   0  0  0  0  0  0  0  0  0  0  0  0
    4.3780   -4.7930   -6.1310 C   0  0  0  0  0  3  0  0  0  0  0  0
    5.7630   -4.9730   -6.2300 C   0  0  0  0  0  3  0  0  0  0  0  0
    6.5690   -4.7270   -5.1260 C   0  0  0  0  0  0  0  0  0  0  0  0
    6.0370   -4.2310   -3.9300 C   0  0  0  0  0  3  0  0  0  0  0  0
    4.6450   -4.0410   -3.8550 C   0  0  0  0  0  0  0  0  0  0  0  0
    8.0300   -4.9090   -5.2110 C   0  0  0  0  0  0  0  0  0  0  0  0
    8.7560   -3.9980   -5.5740 O   0  0  0  0  0  0  0  0  0  0  0  0
    8.5700   -6.1050   -4.7010 N   0  0  0  0  0  0  0  0  0  0  0  0
    8.0170   -7.6210   -5.0890 S   0  0  0  0  0  0  0  0  0  0  0  0
    7.7740   -7.6380   -6.5120 O   0  0  0  0  0  0  0  0  0  0  0  0
    8.9170   -8.5660   -4.4710 O   0  0  0  0  0  0  0  0  0  0  0  0
    6.5620   -7.6750   -4.2760 N   0  0  0  0  0  0  0  0  0  0  0  0
    5.4220   -8.3010   -4.9570 C   0  0  0  0  0  1  0  0  0  0  0  0
    6.5640   -7.6350   -2.7940 C   0  0  0  0  0  2  0  0  0  0  0  0
    5.8720   -8.8340   -2.1480 C   0  0  0  0  0  2  0  0  0  0  0  0
    5.7400   -8.7750   -0.6200 C   0  0  0  0  0  2  0  0  0  0  0  0
    5.5300   -7.4090    0.0440 C   0  0  0  0  0  2  0  0  0  0  0  0
    4.4190   -6.5480   -0.3770 N   0  0  0  0  0  0  0  0  0  0  0  0
    3.3750   -7.0720   -1.2540 C   0  0  0  0  0  1  0  0  0  0  0  0
    4.4680   -5.2360    0.0930 C   0  0  0  0  0  0  0  0  0  0  0  0
    5.3080   -4.8350    0.8990 O   0  0  0  0  0  0  0  0  0  0  0  0
    9.5860   -6.1000   -4.7760 H   0  0  0  0  0  0  0  0  0  0  0  0
    1.1790   -4.2890   -5.2970 C   0  0  0  0  0  3  0  0  0  0  0  0
    1.0770   -3.4020   -6.5470 C   0  0  0  0  0  2  0  0  0  0  0  0
   -0.2250   -3.6540   -7.3060 C   0  0  0  0  0  2  0  0  0  0  0  0
   -0.3980   -5.1300   -7.6530 C   0  0  0  0  0  2  0  0  0  0  0  0
   -0.3050   -6.0140   -6.4130 C   0  0  0  0  0  2  0  0  0  0  0  0
    0.9960   -5.7770   -5.6480 C   0  0  0  0  0  2  0  0  0  0  0  0
   -1.1890   -1.1860    1.4180 C   0  0  0  0  0  1  0  0  0  0  0  0
   -1.3820   -0.9690    0.0260 O   0  0  0  0  0  0  0  0  0  0  0  0
  1  6  1  0  0  0  0
  1 44  1  0  0  0  0
  2  1  2  0  0  0  0
  3  4  2  0  0  0  0
  3  2  1  0  0  0  0
  4  5  1  0  0  0  0
  5  6  2  0  0  0  0
  5  7  1  0  0  0  0
  7  8  1  0  0  0  0
  9  7  2  0  0  0  0
  9 34  1  0  0  0  0
 10  9  1  0  0  0  0
 11 10  1  0  0  0  0
 12 11  1  0  0  0  0
 12  4  1  0  0  0  0
 13 12  2  0  0  0  0
 14 13  1  0  0  0  0
 14 19  1  0  0  0  0
 15 14  2  0  0  0  0
 16 15  1  0  0  0  0
 16 17  2  0  0  0  0
 17 18  1  0  0  0  0
 18 19  2  0  0  0  0
 19 11  1  0  0  0  0
 20 17  1  0  0  0  0
 20 22  1  0  0  0  0
 21 20  2  0  0  0  0
 23 22  1  0  0  0  0
 23 25  2  0  0  0  0
 23 26  1  0  0  0  0
 24 23  2  0  0  0  0
 26 28  1  0  0  0  0
 27 26  1  0  0  0  0
 28 29  1  0  0  0  0
 29 30  1  0  0  0  0
 30 31  1  0  0  0  0
 32 31  1  0  0  0  0
 32 34  1  0  0  0  0
 33 32  1  0  0  0  0
 34 35  2  0  0  0  0
 36 22  1  0  0  0  0
 37 13  1  0  0  0  0
 38 37  1  0  0  0  0
 39 38  1  0  0  0  0
 40 39  1  0  0  0  0
 40 41  1  0  0  0  0
 41 42  1  0  0  0  0
 42 37  1  0  0  0  0
 44 43  1  0  0  0  0
M  END
>  <minimizedAffinity>
-4.67549658

$$$$
