
 OpenBabel09092210413D

 44 49  0  0  0  0  0  0  0  0999 V2000
    0.7940   -0.7740   -5.4130 C   0  0  0  0  0  0  0  0  0  0  0  0
    1.1080   -1.3060   -6.6550 C   0  0  0  0  0  3  0  0  0  0  0  0
    1.9720   -2.3990   -6.7420 C   0  0  0  0  0  3  0  0  0  0  0  0
    2.5290   -2.9990   -5.5970 C   0  0  0  0  0  0  0  0  0  0  0  0
    2.2320   -2.4460   -4.3230 C   0  0  0  0  0  0  0  0  0  0  0  0
    1.3570   -1.3410   -4.2660 C   0  0  0  0  0  3  0  0  0  0  0  0
    2.7840   -2.9800   -3.0340 C   0  0  0  0  0  0  0  0  0  0  0  0
    1.8500   -2.9910   -1.8460 C   0  0  0  0  0  1  0  0  0  0  0  0
    4.0600   -3.4240   -2.9800 C   0  0  0  0  0  0  0  0  0  0  0  0
    5.0540   -3.2890   -4.0970 C   0  0  0  0  0  2  0  0  0  0  0  0
    4.6870   -4.1960   -5.1750 N   0  0  0  0  0  0  0  0  0  0  0  0
    3.4610   -4.1340   -5.8110 C   0  0  0  0  0  0  0  0  0  0  0  0
    3.3730   -5.2720   -6.6180 C   0  0  0  0  0  0  0  0  0  0  0  0
    4.6550   -5.9310   -6.5640 C   0  0  0  0  0  0  0  0  0  0  0  0
    5.2150   -7.0610   -7.2110 C   0  0  0  0  0  3  0  0  0  0  0  0
    6.5250   -7.4660   -6.9290 C   0  0  0  0  0  3  0  0  0  0  0  0
    7.2680   -6.7790   -5.9770 C   0  0  0  0  0  0  0  0  0  0  0  0
    6.7620   -5.6390   -5.3400 C   0  0  0  0  0  3  0  0  0  0  0  0
    5.4490   -5.2380   -5.6480 C   0  0  0  0  0  0  0  0  0  0  0  0
    8.6500   -7.1880   -5.6670 C   0  0  0  0  0  0  0  0  0  0  0  0
    9.5940   -6.7400   -6.2980 O   0  0  0  0  0  0  0  0  0  0  0  0
    8.8570   -7.9770   -4.5200 N   0  0  0  0  0  0  0  0  0  0  0  0
    8.0070   -9.3590   -4.1690 S   0  0  0  0  0  0  0  0  0  0  0  0
    7.8910  -10.1130   -5.3950 O   0  0  0  0  0  0  0  0  0  0  0  0
    8.6100   -9.9330   -2.9900 O   0  0  0  0  0  0  0  0  0  0  0  0
    6.5130   -8.7480   -3.7490 N   0  0  0  0  0  0  0  0  0  0  0  0
    5.3240   -9.4700   -4.2180 C   0  0  0  0  0  1  0  0  0  0  0  0
    6.3970   -7.9080   -2.5340 C   0  0  0  0  0  2  0  0  0  0  0  0
    5.3950   -8.4440   -1.5110 C   0  0  0  0  0  2  0  0  0  0  0  0
    5.1480   -7.5430   -0.2940 C   0  0  0  0  0  2  0  0  0  0  0  0
    5.2000   -6.0230   -0.4870 C   0  0  0  0  0  2  0  0  0  0  0  0
    4.3560   -5.3800   -1.4990 N   0  0  0  0  0  0  0  0  0  0  0  0
    3.2990   -6.1380   -2.1650 C   0  0  0  0  0  1  0  0  0  0  0  0
    4.6630   -4.0470   -1.7750 C   0  0  0  0  0  0  0  0  0  0  0  0
    5.4990   -3.4000   -1.1450 O   0  0  0  0  0  0  0  0  0  0  0  0
    9.8490   -8.1620   -4.3850 H   0  0  0  0  0  0  0  0  0  0  0  0
    2.1570   -5.7230   -7.4030 C   0  0  0  0  0  3  0  0  0  0  0  0
    2.3610   -5.6350   -8.9230 C   0  0  0  0  0  2  0  0  0  0  0  0
    1.1060   -6.0680   -9.6800 C   0  0  0  0  0  2  0  0  0  0  0  0
    0.6440   -7.4600   -9.2590 C   0  0  0  0  0  2  0  0  0  0  0  0
    0.4330   -7.5490   -7.7500 C   0  0  0  0  0  2  0  0  0  0  0  0
    1.6830   -7.1260   -6.9800 C   0  0  0  0  0  2  0  0  0  0  0  0
   -0.4780    0.4800   -3.8420 C   0  0  0  0  0  1  0  0  0  0  0  0
   -0.0280    0.2940   -5.1780 O   0  0  0  0  0  0  0  0  0  0  0  0
  1 44  1  0  0  0  0
  1  6  1  0  0  0  0
  2  1  2  0  0  0  0
  3  2  1  0  0  0  0
  3  4  2  0  0  0  0
  4  5  1  0  0  0  0
  5  6  2  0  0  0  0
  5  7  1  0  0  0  0
  7  9  2  0  0  0  0
  7  8  1  0  0  0  0
  9 34  1  0  0  0  0
 10  9  1  0  0  0  0
 11 10  1  0  0  0  0
 12  4  1  0  0  0  0
 12 11  1  0  0  0  0
 13 14  1  0  0  0  0
 13 12  2  0  0  0  0
 14 19  1  0  0  0  0
 15 16  1  0  0  0  0
 15 14  2  0  0  0  0
 16 17  2  0  0  0  0
 17 20  1  0  0  0  0
 17 18  1  0  0  0  0
 19 18  2  0  0  0  0
 19 11  1  0  0  0  0
 20 22  1  0  0  0  0
 21 20  2  0  0  0  0
 22 36  1  0  0  0  0
 22 23  1  0  0  0  0
 23 26  1  0  0  0  0
 23 25  2  0  0  0  0
 24 23  2  0  0  0  0
 26 28  1  0  0  0  0
 27 26  1  0  0  0  0
 28 29  1  0  0  0  0
 29 30  1  0  0  0  0
 31 30  1  0  0  0  0
 32 31  1  0  0  0  0
 33 32  1  0  0  0  0
 34 32  1  0  0  0  0
 34 35  2  0  0  0  0
 37 42  1  0  0  0  0
 37 13  1  0  0  0  0
 38 37  1  0  0  0  0
 39 40  1  0  0  0  0
 39 38  1  0  0  0  0
 40 41  1  0  0  0  0
 41 42  1  0  0  0  0
 44 43  1  0  0  0  0
M  END
>  <minimizedAffinity>
-4.61658859

$$$$
