
 OpenBabel09122222393D

 40 45  0  0  0  0  0  0  0  0999 V2000
   -8.9140   11.0240    5.5290 C   0  0  0  0  0  0  0  0  0  0  0  0
   -9.5760   11.3780    4.3550 C   0  0  0  0  0  3  0  0  0  0  0  0
  -10.0200   10.3780    3.4880 C   0  0  0  0  0  3  0  0  0  0  0  0
   -9.8230    9.0280    3.8110 C   0  0  0  0  0  0  0  0  0  0  0  0
   -9.1430    8.6890    4.9870 C   0  0  0  0  0  3  0  0  0  0  0  0
   -8.7000    9.6870    5.8540 C   0  0  0  0  0  3  0  0  0  0  0  0
  -10.3600    7.9690    2.9630 C   0  0  0  0  0  0  0  0  0  0  0  0
   -9.9020    6.7350    2.9320 N   0  0  0  0  0  0  0  0  0  0  0  0
  -10.7190    6.0460    2.0700 C   0  0  0  0  0  0  0  0  0  0  0  0
  -10.6770    4.6950    1.6900 C   0  0  0  0  0  3  0  0  0  0  0  0
  -11.6390    4.1870    0.7960 C   0  0  0  0  0  0  0  0  0  0  0  0
  -12.6250    5.0540    0.2990 C   0  0  0  0  0  3  0  0  0  0  0  0
  -12.6830    6.4060    0.6630 C   0  0  0  0  0  3  0  0  0  0  0  0
  -11.7120    6.8770    1.5550 C   0  0  0  0  0  0  0  0  0  0  0  0
  -11.4650    8.1050    2.1350 N   0  0  0  0  0  0  0  0  0  0  0  0
  -12.2440    9.3280    1.9590 C   0  0  0  0  0  3  0  0  0  0  0  0
  -12.3300   10.1720    3.2400 C   0  0  0  0  0  2  0  0  0  0  0  0
  -13.2070   11.4070    3.0300 C   0  0  0  0  0  2  0  0  0  0  0  0
  -12.7470   12.2300    1.8300 C   0  0  0  0  0  2  0  0  0  0  0  0
  -12.6770   11.3870    0.5590 C   0  0  0  0  0  2  0  0  0  0  0  0
  -11.7910   10.1560    0.7460 C   0  0  0  0  0  2  0  0  0  0  0  0
  -11.6160    2.7290    0.3790 C   0  0  0  0  0  0  0  0  0  0  0  0
  -12.4870    2.3580   -0.4710 O   0  0  0  0  0  0  0  0  0  0  0  0
  -10.7320    1.9850    0.9080 O   0  0  0  0  0  1  0  0  0  0  0  0
   -8.5690   11.9980    6.4240 O   0  0  0  0  0  0  0  0  0  0  0  0
   -9.4410   12.0180    7.5610 C   0  0  0  0  0  2  0  0  0  0  0  0
  -11.9560   11.9730    7.0390 C   0  0  0  0  0  0  0  0  0  0  0  0
  -13.1450   12.6840    6.7800 C   0  0  0  0  0  3  0  0  0  0  0  0
  -13.1620   14.0790    6.7460 C   0  0  0  0  0  3  0  0  0  0  0  0
  -11.9870   14.7840    6.9740 C   0  0  0  0  0  0  0  0  0  0  0  0
  -12.0020   16.5040    6.9250 Cl  0  0  0  0  0  0  0  0  0  0  0  0
  -10.7980   14.1080    7.2370 C   0  0  0  0  0  3  0  0  0  0  0  0
  -10.7640   12.6990    7.2710 C   0  0  0  0  0  0  0  0  0  0  0  0
  -12.1640    6.1840    7.1000 C   0  0  0  0  0  1  0  0  0  0  0  0
  -12.1200    7.6830    7.1090 C   0  0  0  0  0  0  0  0  0  0  0  0
  -11.1160    8.3650    7.8050 C   0  0  0  0  0  3  0  0  0  0  0  0
  -11.0660    9.7630    7.7890 C   0  0  0  0  0  3  0  0  0  0  0  0
  -12.0120   10.5060    7.0690 C   0  0  0  0  0  0  0  0  0  0  0  0
  -13.0010    9.8140    6.3550 C   0  0  0  0  0  3  0  0  0  0  0  0
  -13.0550    8.4180    6.3730 C   0  0  0  0  0  3  0  0  0  0  0  0
  1  6  1  0  0  0  0
  1 25  1  0  0  0  0
  2  1  2  0  0  0  0
  3  4  2  0  0  0  0
  3  2  1  0  0  0  0
  4  5  1  0  0  0  0
  5  6  2  0  0  0  0
  7  4  1  0  0  0  0
  8  7  2  0  0  0  0
  9  8  1  0  0  0  0
 10  9  1  0  0  0  0
 11 10  2  0  0  0  0
 12 13  2  0  0  0  0
 12 11  1  0  0  0  0
 13 14  1  0  0  0  0
 14  9  2  0  0  0  0
 14 15  1  0  0  0  0
 15  7  1  0  0  0  0
 16 15  1  0  0  0  0
 16 17  1  0  0  0  0
 18 17  1  0  0  0  0
 19 18  1  0  0  0  0
 20 21  1  0  0  0  0
 20 19  1  0  0  0  0
 21 16  1  0  0  0  0
 22 11  1  0  0  0  0
 22 24  1  0  0  0  0
 23 22  2  0  0  0  0
 25 26  1  0  0  0  0
 27 38  1  0  0  0  0
 27 33  1  0  0  0  0
 28 27  2  0  0  0  0
 29 28  1  0  0  0  0
 29 30  2  0  0  0  0
 30 32  1  0  0  0  0
 31 30  1  0  0  0  0
 32 33  2  0  0  0  0
 33 26  1  0  0  0  0
 34 35  1  0  0  0  0
 35 36  1  0  0  0  0
 37 36  2  0  0  0  0
 38 37  1  0  0  0  0
 39 40  1  0  0  0  0
 39 38  2  0  0  0  0
 40 35  2  0  0  0  0
M  END
>  <minimizedAffinity>
14.3687868

$$$$
