
 OpenBabel09132204463D

 34 38  0  0  0  0  0  0  0  0999 V2000
   13.4200    8.1260   -4.9740 C   0  0  0  0  0  0  0  0  0  0  0  0
   12.7700    9.3660   -4.8740 C   0  0  0  0  0  3  0  0  0  0  0  0
   12.1210    9.7780   -3.7030 C   0  0  0  0  0  3  0  0  0  0  0  0
   12.1370    8.9000   -2.6120 C   0  0  0  0  0  0  0  0  0  0  0  0
   12.7680    7.6610   -2.6750 C   0  0  0  0  0  0  0  0  0  0  0  0
   13.4160    7.2680   -3.8560 C   0  0  0  0  0  3  0  0  0  0  0  0
   12.6410    6.9860   -1.4860 N   0  0  0  0  0  0  0  0  0  0  0  0
   11.9190    7.7590   -0.6990 C   0  0  0  0  0  0  0  0  0  0  0  0
   11.6320    8.9620   -1.3280 N   0  0  0  0  0  0  0  0  0  0  0  0
   11.5130    7.3820    0.6550 C   0  0  0  0  0  0  0  0  0  0  0  0
   10.2040    6.9620    0.9260 C   0  0  0  0  0  3  0  0  0  0  0  0
    9.8460    6.5610    2.2150 C   0  0  0  0  0  3  0  0  0  0  0  0
   10.8050    6.5360    3.2270 C   0  0  0  0  0  0  0  0  0  0  0  0
   12.1050    6.9710    2.9760 C   0  0  0  0  0  3  0  0  0  0  0  0
   12.4590    7.3830    1.6880 C   0  0  0  0  0  3  0  0  0  0  0  0
   10.3970    6.0960    4.4560 O   0  0  0  0  0  0  0  0  0  0  0  0
   11.2080    5.0300    4.9890 C   0  0  0  0  0  2  0  0  0  0  0  0
   10.6650    3.6430    4.6200 C   0  0  0  0  0  2  0  0  0  0  0  0
   11.6260    2.9790    3.7900 O   0  0  0  0  0  0  0  0  0  0  0  0
   11.4930    3.1720    2.4450 C   0  0  0  0  0  0  0  0  0  0  0  0
   10.3180    2.9620    1.7230 C   0  0  0  0  0  3  0  0  0  0  0  0
   10.2910    3.2070    0.3470 C   0  0  0  0  0  3  0  0  0  0  0  0
   11.4400    3.6500   -0.3080 C   0  0  0  0  0  3  0  0  0  0  0  0
   12.6230    3.8310    0.4060 C   0  0  0  0  0  3  0  0  0  0  0  0
   12.6490    3.5750    1.7770 C   0  0  0  0  0  3  0  0  0  0  0  0
   10.9570   10.1030   -0.7130 C   0  0  0  0  0  3  0  0  0  0  0  0
    9.4470    9.8810   -0.5230 C   0  0  0  0  0  2  0  0  0  0  0  0
    8.7770   11.1220    0.0660 C   0  0  0  0  0  2  0  0  0  0  0  0
    9.4540   11.5670    1.3600 C   0  0  0  0  0  2  0  0  0  0  0  0
   10.9500   11.7980    1.1650 C   0  0  0  0  0  2  0  0  0  0  0  0
   11.6400   10.5650    0.5830 C   0  0  0  0  0  2  0  0  0  0  0  0
   15.2860    8.1690   -6.4520 O   0  0  0  0  0  1  0  0  0  0  0  0
   14.1110    7.7200   -6.2600 C   0  0  0  0  0  0  0  0  0  0  0  0
   13.4680    6.9630   -7.0550 O   0  0  0  0  0  0  0  0  0  0  0  0
  1  2  2  0  0  0  0
  1  6  1  0  0  0  0
  2  3  1  0  0  0  0
  3  4  2  0  0  0  0
  4  9  1  0  0  0  0
  5  4  1  0  0  0  0
  5  7  1  0  0  0  0
  6  5  2  0  0  0  0
  7  8  2  0  0  0  0
  8 10  1  0  0  0  0
  9 26  1  0  0  0  0
  9  8  1  0  0  0  0
 10 11  2  0  0  0  0
 10 15  1  0  0  0  0
 11 12  1  0  0  0  0
 12 13  2  0  0  0  0
 13 16  1  0  0  0  0
 14 13  1  0  0  0  0
 15 14  2  0  0  0  0
 16 17  1  0  0  0  0
 18 17  1  0  0  0  0
 19 18  1  0  0  0  0
 20 19  1  0  0  0  0
 21 20  2  0  0  0  0
 22 21  1  0  0  0  0
 23 22  2  0  0  0  0
 23 24  1  0  0  0  0
 24 25  2  0  0  0  0
 25 20  1  0  0  0  0
 26 27  1  0  0  0  0
 26 31  1  0  0  0  0
 27 28  1  0  0  0  0
 28 29  1  0  0  0  0
 30 29  1  0  0  0  0
 31 30  1  0  0  0  0
 32 33  1  0  0  0  0
 33  1  1  0  0  0  0
 34 33  2  0  0  0  0
M  END
>  <minimizedAffinity>
-6.23403978

$$$$
