
 OpenBabel09132204463D

 34 38  0  0  0  0  0  0  0  0999 V2000
    9.3210    9.0560    0.8750 C   0  0  0  0  0  0  0  0  0  0  0  0
    9.9830    8.9430    2.1080 C   0  0  0  0  0  3  0  0  0  0  0  0
   10.4580    7.7160    2.5920 C   0  0  0  0  0  3  0  0  0  0  0  0
   10.2480    6.5830    1.7970 C   0  0  0  0  0  0  0  0  0  0  0  0
    9.5940    6.6560    0.5700 C   0  0  0  0  0  0  0  0  0  0  0  0
    9.1290    7.8950    0.1010 C   0  0  0  0  0  3  0  0  0  0  0  0
    9.5080    5.4170   -0.0140 N   0  0  0  0  0  0  0  0  0  0  0  0
   10.0620    4.5710    0.8330 C   0  0  0  0  0  0  0  0  0  0  0  0
   10.5750    5.2470    1.9310 N   0  0  0  0  0  0  0  0  0  0  0  0
   10.1320    3.1280    0.6070 C   0  0  0  0  0  0  0  0  0  0  0  0
    9.4410    2.2320    1.4340 C   0  0  0  0  0  3  0  0  0  0  0  0
    9.4820    0.8600    1.1750 C   0  0  0  0  0  3  0  0  0  0  0  0
   10.1760    0.3830    0.0640 C   0  0  0  0  0  0  0  0  0  0  0  0
   10.8850    1.2590   -0.7540 C   0  0  0  0  0  3  0  0  0  0  0  0
   10.8530    2.6310   -0.4870 C   0  0  0  0  0  3  0  0  0  0  0  0
   10.1440   -0.9680   -0.1540 O   0  0  0  0  0  0  0  0  0  0  0  0
    9.5710   -1.7170    0.9370 C   0  0  0  0  0  2  0  0  0  0  0  0
   10.2530   -3.0770    1.1330 C   0  0  0  0  0  2  0  0  0  0  0  0
   10.6370   -3.5880   -0.1490 O   0  0  0  0  0  0  0  0  0  0  0  0
   11.9560   -3.4610   -0.4770 C   0  0  0  0  0  0  0  0  0  0  0  0
   12.4380   -3.2550   -1.7690 C   0  0  0  0  0  3  0  0  0  0  0  0
   13.8130   -3.1220   -1.9870 C   0  0  0  0  0  3  0  0  0  0  0  0
   14.7040   -3.2070   -0.9170 C   0  0  0  0  0  3  0  0  0  0  0  0
   14.2260   -3.4430    0.3690 C   0  0  0  0  0  3  0  0  0  0  0  0
   12.8550   -3.5860    0.5830 C   0  0  0  0  0  3  0  0  0  0  0  0
   11.3610    4.6480    3.0060 C   0  0  0  0  0  3  0  0  0  0  0  0
   10.4990    3.9300    4.0580 C   0  0  0  0  0  2  0  0  0  0  0  0
   11.3600    3.3740    5.1920 C   0  0  0  0  0  2  0  0  0  0  0  0
   12.4760    2.4770    4.6630 C   0  0  0  0  0  2  0  0  0  0  0  0
   13.3380    3.1960    3.6280 C   0  0  0  0  0  2  0  0  0  0  0  0
   12.4960    3.7550    2.4820 C   0  0  0  0  0  2  0  0  0  0  0  0
    7.5640   10.5670    0.3320 O   0  0  0  0  0  1  0  0  0  0  0  0
    8.8240   10.4030    0.3890 C   0  0  0  0  0  0  0  0  0  0  0  0
    9.7000   11.2680    0.0710 O   0  0  0  0  0  0  0  0  0  0  0  0
  1  2  1  0  0  0  0
  2  3  2  0  0  0  0
  4  9  1  0  0  0  0
  4  3  1  0  0  0  0
  5  4  2  0  0  0  0
  6  5  1  0  0  0  0
  6  1  2  0  0  0  0
  7  5  1  0  0  0  0
  7  8  2  0  0  0  0
  8  9  1  0  0  0  0
  9 26  1  0  0  0  0
 10  8  1  0  0  0  0
 10 11  1  0  0  0  0
 12 11  2  0  0  0  0
 13 12  1  0  0  0  0
 14 15  1  0  0  0  0
 14 13  2  0  0  0  0
 15 10  2  0  0  0  0
 16 13  1  0  0  0  0
 16 17  1  0  0  0  0
 17 18  1  0  0  0  0
 19 18  1  0  0  0  0
 20 19  1  0  0  0  0
 20 25  1  0  0  0  0
 21 20  2  0  0  0  0
 22 21  1  0  0  0  0
 22 23  2  0  0  0  0
 23 24  1  0  0  0  0
 24 25  2  0  0  0  0
 26 27  1  0  0  0  0
 27 28  1  0  0  0  0
 29 28  1  0  0  0  0
 30 29  1  0  0  0  0
 31 26  1  0  0  0  0
 31 30  1  0  0  0  0
 32 33  1  0  0  0  0
 33  1  1  0  0  0  0
 34 33  2  0  0  0  0
M  END
>  <minimizedAffinity>
-7.52893686

$$$$
