
 OpenBabel09132204463D

 34 38  0  0  0  0  0  0  0  0999 V2000
   10.1450   10.3950    2.7400 C   0  0  0  0  0  0  0  0  0  0  0  0
   11.1320   10.7860    1.8210 C   0  0  0  0  0  3  0  0  0  0  0  0
   11.7040    9.8870    0.9100 C   0  0  0  0  0  3  0  0  0  0  0  0
   11.2560    8.5610    0.9430 C   0  0  0  0  0  0  0  0  0  0  0  0
   10.2810    8.1360    1.8420 C   0  0  0  0  0  0  0  0  0  0  0  0
    9.7180    9.0520    2.7440 C   0  0  0  0  0  3  0  0  0  0  0  0
   10.0180    6.7990    1.6820 N   0  0  0  0  0  0  0  0  0  0  0  0
   10.8270    6.3750    0.7300 C   0  0  0  0  0  0  0  0  0  0  0  0
   11.5660    7.4290    0.2140 N   0  0  0  0  0  0  0  0  0  0  0  0
   10.8950    4.9830    0.2870 C   0  0  0  0  0  0  0  0  0  0  0  0
   12.1180    4.3940   -0.0620 C   0  0  0  0  0  3  0  0  0  0  0  0
   12.1700    3.0500   -0.4390 C   0  0  0  0  0  3  0  0  0  0  0  0
   11.0090    2.2790   -0.4260 C   0  0  0  0  0  0  0  0  0  0  0  0
    9.7840    2.8560   -0.1030 C   0  0  0  0  0  3  0  0  0  0  0  0
    9.7300    4.2040    0.2630 C   0  0  0  0  0  3  0  0  0  0  0  0
   11.1380    0.9600   -0.7690 O   0  0  0  0  0  0  0  0  0  0  0  0
   10.3670    0.5860   -1.9290 C   0  0  0  0  0  2  0  0  0  0  0  0
   11.0830   -0.4620   -2.7920 C   0  0  0  0  0  2  0  0  0  0  0  0
   10.8820   -1.7540   -2.2070 O   0  0  0  0  0  0  0  0  0  0  0  0
   11.9350   -2.2650   -1.5020 C   0  0  0  0  0  0  0  0  0  0  0  0
   13.2730   -2.1520   -1.8780 C   0  0  0  0  0  3  0  0  0  0  0  0
   14.2730   -2.7010   -1.0700 C   0  0  0  0  0  3  0  0  0  0  0  0
   13.9350   -3.3720    0.1060 C   0  0  0  0  0  3  0  0  0  0  0  0
   12.5970   -3.5120    0.4670 C   0  0  0  0  0  3  0  0  0  0  0  0
   11.6010   -2.9720   -0.3460 C   0  0  0  0  0  3  0  0  0  0  0  0
   12.4700    7.3530   -0.9300 C   0  0  0  0  0  3  0  0  0  0  0  0
   12.0600    8.2780   -2.0880 C   0  0  0  0  0  2  0  0  0  0  0  0
   12.9990    8.1180   -3.2830 C   0  0  0  0  0  2  0  0  0  0  0  0
   14.4580    8.3210   -2.8820 C   0  0  0  0  0  2  0  0  0  0  0  0
   14.8670    7.3940   -1.7410 C   0  0  0  0  0  2  0  0  0  0  0  0
   13.9420    7.5430   -0.5340 C   0  0  0  0  0  2  0  0  0  0  0  0
   10.2880   11.7700    4.6780 O   0  0  0  0  0  1  0  0  0  0  0  0
    9.5530   11.4000    3.7080 C   0  0  0  0  0  0  0  0  0  0  0  0
    8.3670   11.7980    3.4830 O   0  0  0  0  0  0  0  0  0  0  0  0
  1  6  1  0  0  0  0
  1 33  1  0  0  0  0
  2  1  2  0  0  0  0
  3  4  2  0  0  0  0
  3  2  1  0  0  0  0
  4  5  1  0  0  0  0
  5  6  2  0  0  0  0
  7  5  1  0  0  0  0
  8  7  2  0  0  0  0
  9  8  1  0  0  0  0
  9  4  1  0  0  0  0
 10  8  1  0  0  0  0
 11 10  2  0  0  0  0
 12 13  2  0  0  0  0
 12 11  1  0  0  0  0
 13 14  1  0  0  0  0
 14 15  2  0  0  0  0
 15 10  1  0  0  0  0
 16 13  1  0  0  0  0
 17 16  1  0  0  0  0
 18 19  1  0  0  0  0
 18 17  1  0  0  0  0
 19 20  1  0  0  0  0
 20 25  1  0  0  0  0
 21 20  2  0  0  0  0
 21 22  1  0  0  0  0
 22 23  2  0  0  0  0
 23 24  1  0  0  0  0
 25 24  2  0  0  0  0
 26 31  1  0  0  0  0
 26  9  1  0  0  0  0
 27 26  1  0  0  0  0
 28 29  1  0  0  0  0
 28 27  1  0  0  0  0
 29 30  1  0  0  0  0
 30 31  1  0  0  0  0
 33 32  1  0  0  0  0
 34 33  2  0  0  0  0
M  END
>  <minimizedAffinity>
-6.38562918

$$$$
