
 OpenBabel09132204463D

 34 38  0  0  0  0  0  0  0  0999 V2000
   13.8940    8.8870   -3.9560 C   0  0  0  0  0  0  0  0  0  0  0  0
   13.1460    9.8310   -3.2320 C   0  0  0  0  0  3  0  0  0  0  0  0
   12.3940    9.4820   -2.1020 C   0  0  0  0  0  3  0  0  0  0  0  0
   12.4080    8.1380   -1.7060 C   0  0  0  0  0  0  0  0  0  0  0  0
   13.1350    7.1750   -2.4000 C   0  0  0  0  0  0  0  0  0  0  0  0
   13.8840    7.5450   -3.5280 C   0  0  0  0  0  3  0  0  0  0  0  0
   12.9850    5.9380   -1.8230 N   0  0  0  0  0  0  0  0  0  0  0  0
   12.1570    6.1030   -0.8090 C   0  0  0  0  0  0  0  0  0  0  0  0
   11.8200    7.4420   -0.6690 N   0  0  0  0  0  0  0  0  0  0  0  0
   11.6960    5.0090    0.0450 C   0  0  0  0  0  0  0  0  0  0  0  0
   12.5370    4.4450    1.0140 C   0  0  0  0  0  3  0  0  0  0  0  0
   12.0670    3.4330    1.8520 C   0  0  0  0  0  3  0  0  0  0  0  0
   10.7410    3.0110    1.7550 C   0  0  0  0  0  0  0  0  0  0  0  0
    9.9010    3.5460    0.7830 C   0  0  0  0  0  3  0  0  0  0  0  0
   10.3770    4.5520   -0.0640 C   0  0  0  0  0  3  0  0  0  0  0  0
   10.3340    2.0420    2.6320 O   0  0  0  0  0  0  0  0  0  0  0  0
    9.2370    1.2440    2.1450 C   0  0  0  0  0  2  0  0  0  0  0  0
    9.7010   -0.1140    1.5990 C   0  0  0  0  0  2  0  0  0  0  0  0
    9.2820   -0.2280    0.2340 O   0  0  0  0  0  0  0  0  0  0  0  0
   10.2760   -0.3990   -0.6870 C   0  0  0  0  0  0  0  0  0  0  0  0
   10.8130   -1.6310   -1.0580 C   0  0  0  0  0  3  0  0  0  0  0  0
   11.8200   -1.6890   -2.0260 C   0  0  0  0  0  3  0  0  0  0  0  0
   12.2970   -0.5170   -2.6140 C   0  0  0  0  0  3  0  0  0  0  0  0
   11.7810    0.7160   -2.2230 C   0  0  0  0  0  3  0  0  0  0  0  0
   10.7840    0.7730   -1.2490 C   0  0  0  0  0  3  0  0  0  0  0  0
   11.0230    8.0080    0.4170 C   0  0  0  0  0  3  0  0  0  0  0  0
   11.8130    8.9900    1.2980 C   0  0  0  0  0  2  0  0  0  0  0  0
   10.9570    9.5070    2.4530 C   0  0  0  0  0  2  0  0  0  0  0  0
    9.6490   10.1160    1.9550 C   0  0  0  0  0  2  0  0  0  0  0  0
    8.8600    9.1360    1.0900 C   0  0  0  0  0  2  0  0  0  0  0  0
    9.6980    8.6110   -0.0750 C   0  0  0  0  0  2  0  0  0  0  0  0
   14.7110   10.5490   -5.4510 O   0  0  0  0  0  1  0  0  0  0  0  0
   14.6940    9.3080   -5.1720 C   0  0  0  0  0  0  0  0  0  0  0  0
   15.2860    8.3930   -5.8270 O   0  0  0  0  0  0  0  0  0  0  0  0
  1  6  2  0  0  0  0
  1  2  1  0  0  0  0
  2  3  2  0  0  0  0
  3  4  1  0  0  0  0
  4  9  1  0  0  0  0
  5  7  1  0  0  0  0
  5  4  2  0  0  0  0
  6  5  1  0  0  0  0
  7  8  2  0  0  0  0
  8  9  1  0  0  0  0
  8 10  1  0  0  0  0
  9 26  1  0  0  0  0
 10 11  1  0  0  0  0
 11 12  2  0  0  0  0
 13 12  1  0  0  0  0
 13 16  1  0  0  0  0
 14 13  2  0  0  0  0
 15 10  2  0  0  0  0
 15 14  1  0  0  0  0
 17 16  1  0  0  0  0
 18 17  1  0  0  0  0
 19 18  1  0  0  0  0
 20 19  1  0  0  0  0
 21 20  1  0  0  0  0
 22 21  2  0  0  0  0
 23 24  2  0  0  0  0
 23 22  1  0  0  0  0
 24 25  1  0  0  0  0
 25 20  2  0  0  0  0
 26 27  1  0  0  0  0
 27 28  1  0  0  0  0
 29 28  1  0  0  0  0
 30 29  1  0  0  0  0
 31 26  1  0  0  0  0
 31 30  1  0  0  0  0
 32 33  1  0  0  0  0
 33  1  1  0  0  0  0
 34 33  2  0  0  0  0
M  END
>  <minimizedAffinity>
-6.27342319

$$$$
