
 OpenBabel09132204463D

 31 34  0  0  1  0  0  0  0  0999 V2000
    4.4750   -5.7800    4.6940 N   0  0  0  0  0  0  0  0  0  0  0  0
    4.1840   -6.2550    5.9690 C   0  0  0  0  0  0  0  0  0  0  0  0
    4.8820   -6.0400    6.9590 O   0  0  0  0  0  0  0  0  0  0  0  0
    4.4170   -6.6460    3.5900 C   0  0  0  0  0  0  0  0  0  0  0  0
    4.3710   -6.2290    2.3480 N   0  0  0  0  0  0  0  0  0  0  0  0
    4.3580   -7.3180    1.4650 C   0  0  0  0  0  0  0  0  0  0  0  0
    4.4480   -8.5480    2.0920 C   0  0  0  0  0  3  0  0  0  0  0  0
    4.5450   -8.3470    3.7870 S   0  0  0  0  0  0  0  0  0  0  0  0
    1.8450   -1.5330    6.0530 C   0  0  0  0  0  1  0  0  0  0  0  0
    3.0660   -2.1180    5.3440 C   0  0  1  0  0  3  0  0  0  0  0  0
    3.9870   -2.8200    6.3440 C   0  0  0  0  0  2  0  0  0  0  0  0
    5.1860   -3.4910    5.6680 C   0  0  0  0  0  2  0  0  0  0  0  0
    4.8540   -4.3650    4.4390 C   0  0  2  0  0  3  0  0  0  0  0  0
    3.8450   -3.6620    3.5110 C   0  0  0  0  0  2  0  0  0  0  0  0
    2.6350   -3.0900    4.2440 C   0  0  0  0  0  2  0  0  0  0  0  0
    2.8890   -6.9780    6.1940 C   0  0  0  0  0  0  0  0  0  0  0  0
    2.8770   -8.3750    6.0670 C   0  0  0  0  0  3  0  0  0  0  0  0
    1.7090   -9.0970    6.3190 C   0  0  0  0  0  3  0  0  0  0  0  0
    0.5550   -8.4280    6.7270 C   0  0  0  0  0  0  0  0  0  0  0  0
    0.5490   -7.0360    6.8400 C   0  0  0  0  0  3  0  0  0  0  0  0
    1.7180   -6.3120    6.5870 C   0  0  0  0  0  3  0  0  0  0  0  0
   -0.5710   -9.1860    6.9490 O   0  0  0  0  0  0  0  0  0  0  0  0
   -1.5430   -9.1600    5.9730 C   0  0  0  0  0  0  0  0  0  0  0  0
   -2.8370   -9.6440    6.1790 C   0  0  0  0  0  3  0  0  0  0  0  0
   -3.7620   -9.6170    5.1330 C   0  0  0  0  0  3  0  0  0  0  0  0
   -3.3880   -9.1240    3.8820 C   0  0  0  0  0  3  0  0  0  0  0  0
   -2.0880   -8.6620    3.6730 C   0  0  0  0  0  3  0  0  0  0  0  0
   -1.1620   -8.6870    4.7170 C   0  0  0  0  0  3  0  0  0  0  0  0
    4.2620   -7.2010   -0.0310 C   0  0  0  0  0  0  0  0  0  0  0  0
    3.5170   -8.0520   -0.6170 O   0  0  0  0  0  0  0  0  0  0  0  0
    4.9190   -6.2700   -0.5910 O   0  0  0  0  0  1  0  0  0  0  0  0
  1  2  1  0  0  0  0
  2 16  1  0  0  0  0
  2  3  2  0  0  0  0
  4  8  1  0  0  0  0
  4  1  1  0  0  0  0
  5  4  2  0  0  0  0
  6  7  2  0  0  0  0
  6  5  1  0  0  0  0
  7  8  1  0  0  0  0
 10  9  1  1  0  0  0
 10 11  1  0  0  0  0
 12 11  1  0  0  0  0
 13  1  1  1  0  0  0
 13 12  1  0  0  0  0
 14 15  1  0  0  0  0
 14 13  1  0  0  0  0
 15 10  1  0  0  0  0
 16 21  1  0  0  0  0
 17 16  2  0  0  0  0
 17 18  1  0  0  0  0
 18 19  2  0  0  0  0
 19 20  1  0  0  0  0
 19 22  1  0  0  0  0
 21 20  2  0  0  0  0
 23 24  1  0  0  0  0
 23 22  1  0  0  0  0
 25 24  2  0  0  0  0
 26 25  1  0  0  0  0
 27 26  2  0  0  0  0
 27 28  1  0  0  0  0
 28 23  2  0  0  0  0
 29  6  1  0  0  0  0
 30 29  2  0  0  0  0
 31 29  1  0  0  0  0
M  END
>  <minimizedAffinity>
-3.92162824

$$$$
