
 OpenBabel09132204463D

 31 34  0  0  1  0  0  0  0  0999 V2000
    4.2480   -5.5600    4.6590 N   0  0  0  0  0  0  0  0  0  0  0  0
    3.9400   -5.9870    5.9470 C   0  0  0  0  0  0  0  0  0  0  0  0
    4.5550   -5.6380    6.9540 O   0  0  0  0  0  0  0  0  0  0  0  0
    4.3440   -6.4910    3.6130 C   0  0  0  0  0  0  0  0  0  0  0  0
    4.3210   -6.1560    2.3450 N   0  0  0  0  0  0  0  0  0  0  0  0
    4.4740   -7.2900    1.5360 C   0  0  0  0  0  0  0  0  0  0  0  0
    4.6610   -8.4630    2.2450 C   0  0  0  0  0  3  0  0  0  0  0  0
    4.6430   -8.1530    3.9260 S   0  0  0  0  0  0  0  0  0  0  0  0
    8.6720   -2.9180    5.1620 C   0  0  0  0  0  1  0  0  0  0  0  0
    7.1920   -2.8890    4.7790 C   0  0  1  0  0  3  0  0  0  0  0  0
    6.9360   -3.7570    3.5450 C   0  0  0  0  0  2  0  0  0  0  0  0
    5.4530   -3.8220    3.1690 C   0  0  0  0  0  2  0  0  0  0  0  0
    4.4850   -4.1290    4.3320 C   0  0  2  0  0  3  0  0  0  0  0  0
    4.8430   -3.3090    5.5870 C   0  0  0  0  0  2  0  0  0  0  0  0
    6.3240   -3.3570    5.9480 C   0  0  0  0  0  2  0  0  0  0  0  0
    2.7190   -6.8350    6.1560 C   0  0  0  0  0  0  0  0  0  0  0  0
    2.8920   -8.1410    6.6390 C   0  0  0  0  0  3  0  0  0  0  0  0
    1.7840   -8.9500    6.9000 C   0  0  0  0  0  3  0  0  0  0  0  0
    0.4980   -8.4460    6.7070 C   0  0  0  0  0  0  0  0  0  0  0  0
    0.3130   -7.1540    6.2100 C   0  0  0  0  0  3  0  0  0  0  0  0
    1.4220   -6.3440    5.9470 C   0  0  0  0  0  3  0  0  0  0  0  0
   -0.5570   -9.2900    6.9670 O   0  0  0  0  0  0  0  0  0  0  0  0
   -1.4460   -9.5120    5.9390 C   0  0  0  0  0  0  0  0  0  0  0  0
   -2.8310   -9.5330    6.1250 C   0  0  0  0  0  3  0  0  0  0  0  0
   -3.6720   -9.7980    5.0420 C   0  0  0  0  0  3  0  0  0  0  0  0
   -3.1290  -10.0590    3.7830 C   0  0  0  0  0  3  0  0  0  0  0  0
   -1.7450  -10.0610    3.6060 C   0  0  0  0  0  3  0  0  0  0  0  0
   -0.9020   -9.7950    4.6850 C   0  0  0  0  0  3  0  0  0  0  0  0
    4.4480   -7.2740    0.0320 C   0  0  0  0  0  0  0  0  0  0  0  0
    3.2970   -7.2610   -0.5130 O   0  0  0  0  0  1  0  0  0  0  0  0
    5.5640   -7.2690   -0.5740 O   0  0  0  0  0  0  0  0  0  0  0  0
  1  2  1  0  0  0  0
  2 16  1  0  0  0  0
  2  3  2  0  0  0  0
  4  8  1  0  0  0  0
  4  1  1  0  0  0  0
  5  4  2  0  0  0  0
  6  7  2  0  0  0  0
  6  5  1  0  0  0  0
  7  8  1  0  0  0  0
 10  9  1  1  0  0  0
 10 15  1  0  0  0  0
 11 10  1  0  0  0  0
 12 11  1  0  0  0  0
 12 13  1  0  0  0  0
 13  1  1  1  0  0  0
 13 14  1  0  0  0  0
 14 15  1  0  0  0  0
 16 17  1  0  0  0  0
 17 18  2  0  0  0  0
 19 18  1  0  0  0  0
 19 22  1  0  0  0  0
 20 19  2  0  0  0  0
 21 16  2  0  0  0  0
 21 20  1  0  0  0  0
 23 24  1  0  0  0  0
 23 22  1  0  0  0  0
 25 24  2  0  0  0  0
 26 25  1  0  0  0  0
 27 26  2  0  0  0  0
 27 28  1  0  0  0  0
 28 23  2  0  0  0  0
 29  6  1  0  0  0  0
 30 29  1  0  0  0  0
 31 29  2  0  0  0  0
M  END
>  <minimizedAffinity>
-3.82805133

$$$$
