
 OpenBabel09132204463D

 31 34  0  0  1  0  0  0  0  0999 V2000
    2.1850   -7.2060    5.9430 N   0  0  0  0  0  0  0  0  0  0  0  0
    2.9550   -8.3110    5.5960 C   0  0  0  0  0  0  0  0  0  0  0  0
    3.0610   -9.3220    6.2890 O   0  0  0  0  0  0  0  0  0  0  0  0
    2.7230   -5.9130    5.8420 C   0  0  0  0  0  0  0  0  0  0  0  0
    1.9920   -4.8250    5.8480 N   0  0  0  0  0  0  0  0  0  0  0  0
    2.8060   -3.6860    5.7720 C   0  0  0  0  0  0  0  0  0  0  0  0
    4.1610   -3.9670    5.7620 C   0  0  0  0  0  3  0  0  0  0  0  0
    4.4200   -5.6540    5.8430 S   0  0  0  0  0  0  0  0  0  0  0  0
   -1.6070  -10.0560    3.8700 C   0  0  0  0  0  1  0  0  0  0  0  0
   -1.1900   -9.0650    4.9550 C   0  0  1  0  0  3  0  0  0  0  0  0
   -0.1640   -9.6960    5.8990 C   0  0  0  0  0  2  0  0  0  0  0  0
    0.3440   -8.7140    6.9580 C   0  0  0  0  0  2  0  0  0  0  0  0
    0.7840   -7.3330    6.4270 C   0  0  2  0  0  3  0  0  0  0  0  0
   -0.2260   -6.7800    5.4030 C   0  0  0  0  0  2  0  0  0  0  0  0
   -0.6230   -7.7890    4.3300 C   0  0  0  0  0  2  0  0  0  0  0  0
    3.6140   -8.3400    4.2480 C   0  0  0  0  0  0  0  0  0  0  0  0
    3.3880   -7.2670    3.3740 C   0  0  0  0  0  3  0  0  0  0  0  0
    4.0210   -7.2230    2.1300 C   0  0  0  0  0  3  0  0  0  0  0  0
    4.9050   -8.2390    1.7670 C   0  0  0  0  0  0  0  0  0  0  0  0
    5.1260   -9.3220    2.6210 C   0  0  0  0  0  3  0  0  0  0  0  0
    4.4920   -9.3670    3.8660 C   0  0  0  0  0  3  0  0  0  0  0  0
    5.4910   -8.1530    0.5250 O   0  0  0  0  0  0  0  0  0  0  0  0
    6.3840   -7.1230    0.3260 C   0  0  0  0  0  0  0  0  0  0  0  0
    7.4120   -6.8260    1.2240 C   0  0  0  0  0  3  0  0  0  0  0  0
    8.2600   -5.7440    0.9750 C   0  0  0  0  0  3  0  0  0  0  0  0
    8.0670   -4.9530   -0.1580 C   0  0  0  0  0  3  0  0  0  0  0  0
    7.0240   -5.2370   -1.0410 C   0  0  0  0  0  3  0  0  0  0  0  0
    6.1770   -6.3180   -0.7950 C   0  0  0  0  0  3  0  0  0  0  0  0
    2.2930   -2.2740    5.7110 C   0  0  0  0  0  0  0  0  0  0  0  0
    1.3500   -2.0510    4.8850 O   0  0  0  0  0  0  0  0  0  0  0  0
    2.8290   -1.4210    6.4830 O   0  0  0  0  0  1  0  0  0  0  0  0
  2  1  1  0  0  0  0
  2  3  2  0  0  0  0
  4  8  1  0  0  0  0
  4  5  2  0  0  0  0
  4  1  1  0  0  0  0
  6  5  1  0  0  0  0
  7  6  2  0  0  0  0
  7  8  1  0  0  0  0
 10  9  1  6  0  0  0
 10 11  1  0  0  0  0
 11 12  1  0  0  0  0
 13  1  1  6  0  0  0
 13 12  1  0  0  0  0
 14 13  1  0  0  0  0
 15 10  1  0  0  0  0
 15 14  1  0  0  0  0
 16  2  1  0  0  0  0
 17 16  2  0  0  0  0
 18 17  1  0  0  0  0
 19 18  2  0  0  0  0
 19 20  1  0  0  0  0
 20 21  2  0  0  0  0
 21 16  1  0  0  0  0
 22 19  1  0  0  0  0
 23 22  1  0  0  0  0
 23 24  1  0  0  0  0
 25 24  2  0  0  0  0
 26 25  1  0  0  0  0
 27 28  1  0  0  0  0
 27 26  2  0  0  0  0
 28 23  2  0  0  0  0
 29  6  1  0  0  0  0
 29 31  1  0  0  0  0
 30 29  2  0  0  0  0
M  END
>  <minimizedAffinity>
-4.82084417

$$$$
