
 OpenBabel09122223203D

 31 34  0  0  1  0  0  0  0  0999 V2000
    1.2540   -7.3320    6.1470 N   0  0  0  0  0  0  0  0  0  0  0  0
    1.8040   -8.6010    5.9940 C   0  0  0  0  0  0  0  0  0  0  0  0
    1.4920   -9.5740    6.6800 O   0  0  0  0  0  0  0  0  0  0  0  0
    2.0900   -6.2050    6.2000 C   0  0  0  0  0  0  0  0  0  0  0  0
    1.6580   -4.9780    6.0330 N   0  0  0  0  0  0  0  0  0  0  0  0
    2.7090   -4.0630    6.1780 C   0  0  0  0  0  0  0  0  0  0  0  0
    3.9190   -4.6490    6.5070 C   0  0  0  0  0  3  0  0  0  0  0  0
    3.7450   -6.3450    6.6330 S   0  0  0  0  0  0  0  0  0  0  0  0
   -2.5210  -10.0590    3.8860 C   0  0  0  0  0  1  0  0  0  0  0  0
   -2.1460   -8.8740    4.7750 C   0  0  1  0  0  3  0  0  0  0  0  0
   -1.5050   -9.3580    6.0780 C   0  0  0  0  0  2  0  0  0  0  0  0
   -1.0390   -8.2020    6.9690 C   0  0  0  0  0  2  0  0  0  0  0  0
   -0.2120   -7.1090    6.2610 C   0  0  2  0  0  3  0  0  0  0  0  0
   -0.8370   -6.7250    4.9050 C   0  0  0  0  0  2  0  0  0  0  0  0
   -1.1990   -7.9260    4.0370 C   0  0  0  0  0  2  0  0  0  0  0  0
    2.7500   -8.8470    4.8560 C   0  0  0  0  0  0  0  0  0  0  0  0
    2.4070   -8.3570    3.5870 C   0  0  0  0  0  3  0  0  0  0  0  0
    3.2800   -8.5150    2.5090 C   0  0  0  0  0  3  0  0  0  0  0  0
    4.5120   -9.1390    2.7010 C   0  0  0  0  0  0  0  0  0  0  0  0
    4.8580   -9.6470    3.9550 C   0  0  0  0  0  3  0  0  0  0  0  0
    3.9850   -9.4900    5.0350 C   0  0  0  0  0  3  0  0  0  0  0  0
    5.3280   -9.2810    1.6020 O   0  0  0  0  0  0  0  0  0  0  0  0
    5.7130   -8.1260    0.9580 C   0  0  0  0  0  0  0  0  0  0  0  0
    5.2070   -7.7470   -0.2880 C   0  0  0  0  0  3  0  0  0  0  0  0
    5.6680   -6.5790   -0.8980 C   0  0  0  0  0  3  0  0  0  0  0  0
    6.6440   -5.8030   -0.2720 C   0  0  0  0  0  3  0  0  0  0  0  0
    7.1640   -6.1950    0.9620 C   0  0  0  0  0  3  0  0  0  0  0  0
    6.7040   -7.3620    1.5740 C   0  0  0  0  0  3  0  0  0  0  0  0
    2.5750   -2.5760    6.0050 C   0  0  0  0  0  0  0  0  0  0  0  0
    1.7320   -2.1810    5.1360 O   0  0  0  0  0  0  0  0  0  0  0  0
    3.3020   -1.8320    6.7350 O   0  0  0  0  0  1  0  0  0  0  0  0
  1  4  1  0  0  0  0
  2  1  1  0  0  0  0
  2  3  2  0  0  0  0
  4  8  1  0  0  0  0
  5  6  1  0  0  0  0
  5  4  2  0  0  0  0
  6  7  2  0  0  0  0
  7  8  1  0  0  0  0
 10  9  1  6  0  0  0
 10 11  1  0  0  0  0
 11 12  1  0  0  0  0
 13  1  1  6  0  0  0
 13 12  1  0  0  0  0
 14 13  1  0  0  0  0
 15 10  1  0  0  0  0
 15 14  1  0  0  0  0
 16 21  1  0  0  0  0
 16  2  1  0  0  0  0
 17 16  2  0  0  0  0
 18 19  2  0  0  0  0
 18 17  1  0  0  0  0
 19 20  1  0  0  0  0
 20 21  2  0  0  0  0
 22 19  1  0  0  0  0
 23 28  1  0  0  0  0
 23 22  1  0  0  0  0
 24 23  2  0  0  0  0
 25 24  1  0  0  0  0
 25 26  2  0  0  0  0
 26 27  1  0  0  0  0
 27 28  2  0  0  0  0
 29  6  1  0  0  0  0
 29 31  1  0  0  0  0
 30 29  2  0  0  0  0
M  END
>  <minimizedAffinity>
-5.46003485

$$$$

 OpenBabel09122223203D

 31 34  0  0  1  0  0  0  0  0999 V2000
    2.1850   -7.2060    5.9430 N   0  0  0  0  0  0  0  0  0  0  0  0
    2.9550   -8.3110    5.5960 C   0  0  0  0  0  0  0  0  0  0  0  0
    3.0610   -9.3220    6.2890 O   0  0  0  0  0  0  0  0  0  0  0  0
    2.7230   -5.9130    5.8420 C   0  0  0  0  0  0  0  0  0  0  0  0
    1.9920   -4.8250    5.8480 N   0  0  0  0  0  0  0  0  0  0  0  0
    2.8060   -3.6860    5.7720 C   0  0  0  0  0  0  0  0  0  0  0  0
    4.1610   -3.9670    5.7620 C   0  0  0  0  0  3  0  0  0  0  0  0
    4.4200   -5.6540    5.8430 S   0  0  0  0  0  0  0  0  0  0  0  0
   -1.6070  -10.0560    3.8700 C   0  0  0  0  0  1  0  0  0  0  0  0
   -1.1900   -9.0650    4.9550 C   0  0  1  0  0  3  0  0  0  0  0  0
   -0.1640   -9.6960    5.8990 C   0  0  0  0  0  2  0  0  0  0  0  0
    0.3440   -8.7140    6.9580 C   0  0  0  0  0  2  0  0  0  0  0  0
    0.7840   -7.3330    6.4270 C   0  0  2  0  0  3  0  0  0  0  0  0
   -0.2260   -6.7800    5.4030 C   0  0  0  0  0  2  0  0  0  0  0  0
   -0.6230   -7.7890    4.3300 C   0  0  0  0  0  2  0  0  0  0  0  0
    3.6140   -8.3400    4.2480 C   0  0  0  0  0  0  0  0  0  0  0  0
    3.3880   -7.2670    3.3740 C   0  0  0  0  0  3  0  0  0  0  0  0
    4.0210   -7.2230    2.1300 C   0  0  0  0  0  3  0  0  0  0  0  0
    4.9050   -8.2390    1.7670 C   0  0  0  0  0  0  0  0  0  0  0  0
    5.1260   -9.3220    2.6210 C   0  0  0  0  0  3  0  0  0  0  0  0
    4.4920   -9.3670    3.8660 C   0  0  0  0  0  3  0  0  0  0  0  0
    5.4910   -8.1530    0.5250 O   0  0  0  0  0  0  0  0  0  0  0  0
    6.3840   -7.1230    0.3260 C   0  0  0  0  0  0  0  0  0  0  0  0
    7.4120   -6.8260    1.2240 C   0  0  0  0  0  3  0  0  0  0  0  0
    8.2600   -5.7440    0.9750 C   0  0  0  0  0  3  0  0  0  0  0  0
    8.0670   -4.9530   -0.1580 C   0  0  0  0  0  3  0  0  0  0  0  0
    7.0240   -5.2370   -1.0410 C   0  0  0  0  0  3  0  0  0  0  0  0
    6.1770   -6.3180   -0.7950 C   0  0  0  0  0  3  0  0  0  0  0  0
    2.2930   -2.2740    5.7110 C   0  0  0  0  0  0  0  0  0  0  0  0
    1.3500   -2.0510    4.8850 O   0  0  0  0  0  0  0  0  0  0  0  0
    2.8290   -1.4210    6.4830 O   0  0  0  0  0  1  0  0  0  0  0  0
  2  1  1  0  0  0  0
  2  3  2  0  0  0  0
  4  8  1  0  0  0  0
  4  5  2  0  0  0  0
  4  1  1  0  0  0  0
  6  5  1  0  0  0  0
  7  6  2  0  0  0  0
  7  8  1  0  0  0  0
 10  9  1  6  0  0  0
 10 11  1  0  0  0  0
 11 12  1  0  0  0  0
 13  1  1  6  0  0  0
 13 12  1  0  0  0  0
 14 13  1  0  0  0  0
 15 10  1  0  0  0  0
 15 14  1  0  0  0  0
 16  2  1  0  0  0  0
 17 16  2  0  0  0  0
 18 17  1  0  0  0  0
 19 18  2  0  0  0  0
 19 20  1  0  0  0  0
 20 21  2  0  0  0  0
 21 16  1  0  0  0  0
 22 19  1  0  0  0  0
 23 22  1  0  0  0  0
 23 24  1  0  0  0  0
 25 24  2  0  0  0  0
 26 25  1  0  0  0  0
 27 28  1  0  0  0  0
 27 26  2  0  0  0  0
 28 23  2  0  0  0  0
 29  6  1  0  0  0  0
 29 31  1  0  0  0  0
 30 29  2  0  0  0  0
M  END
>  <minimizedAffinity>
-4.82084417

$$$$

 OpenBabel09122223203D

 31 34  0  0  1  0  0  0  0  0999 V2000
    4.4750   -5.7800    4.6940 N   0  0  0  0  0  0  0  0  0  0  0  0
    4.1840   -6.2550    5.9690 C   0  0  0  0  0  0  0  0  0  0  0  0
    4.8820   -6.0400    6.9590 O   0  0  0  0  0  0  0  0  0  0  0  0
    4.4170   -6.6460    3.5900 C   0  0  0  0  0  0  0  0  0  0  0  0
    4.3710   -6.2290    2.3480 N   0  0  0  0  0  0  0  0  0  0  0  0
    4.3580   -7.3180    1.4650 C   0  0  0  0  0  0  0  0  0  0  0  0
    4.4480   -8.5480    2.0920 C   0  0  0  0  0  3  0  0  0  0  0  0
    4.5450   -8.3470    3.7870 S   0  0  0  0  0  0  0  0  0  0  0  0
    1.8450   -1.5330    6.0530 C   0  0  0  0  0  1  0  0  0  0  0  0
    3.0660   -2.1180    5.3440 C   0  0  1  0  0  3  0  0  0  0  0  0
    3.9870   -2.8200    6.3440 C   0  0  0  0  0  2  0  0  0  0  0  0
    5.1860   -3.4910    5.6680 C   0  0  0  0  0  2  0  0  0  0  0  0
    4.8540   -4.3650    4.4390 C   0  0  2  0  0  3  0  0  0  0  0  0
    3.8450   -3.6620    3.5110 C   0  0  0  0  0  2  0  0  0  0  0  0
    2.6350   -3.0900    4.2440 C   0  0  0  0  0  2  0  0  0  0  0  0
    2.8890   -6.9780    6.1940 C   0  0  0  0  0  0  0  0  0  0  0  0
    2.8770   -8.3750    6.0670 C   0  0  0  0  0  3  0  0  0  0  0  0
    1.7090   -9.0970    6.3190 C   0  0  0  0  0  3  0  0  0  0  0  0
    0.5550   -8.4280    6.7270 C   0  0  0  0  0  0  0  0  0  0  0  0
    0.5490   -7.0360    6.8400 C   0  0  0  0  0  3  0  0  0  0  0  0
    1.7180   -6.3120    6.5870 C   0  0  0  0  0  3  0  0  0  0  0  0
   -0.5710   -9.1860    6.9490 O   0  0  0  0  0  0  0  0  0  0  0  0
   -1.5430   -9.1600    5.9730 C   0  0  0  0  0  0  0  0  0  0  0  0
   -2.8370   -9.6440    6.1790 C   0  0  0  0  0  3  0  0  0  0  0  0
   -3.7620   -9.6170    5.1330 C   0  0  0  0  0  3  0  0  0  0  0  0
   -3.3880   -9.1240    3.8820 C   0  0  0  0  0  3  0  0  0  0  0  0
   -2.0880   -8.6620    3.6730 C   0  0  0  0  0  3  0  0  0  0  0  0
   -1.1620   -8.6870    4.7170 C   0  0  0  0  0  3  0  0  0  0  0  0
    4.2620   -7.2010   -0.0310 C   0  0  0  0  0  0  0  0  0  0  0  0
    3.5170   -8.0520   -0.6170 O   0  0  0  0  0  0  0  0  0  0  0  0
    4.9190   -6.2700   -0.5910 O   0  0  0  0  0  1  0  0  0  0  0  0
  1  2  1  0  0  0  0
  2 16  1  0  0  0  0
  2  3  2  0  0  0  0
  4  8  1  0  0  0  0
  4  1  1  0  0  0  0
  5  4  2  0  0  0  0
  6  7  2  0  0  0  0
  6  5  1  0  0  0  0
  7  8  1  0  0  0  0
 10  9  1  1  0  0  0
 10 11  1  0  0  0  0
 12 11  1  0  0  0  0
 13  1  1  1  0  0  0
 13 12  1  0  0  0  0
 14 15  1  0  0  0  0
 14 13  1  0  0  0  0
 15 10  1  0  0  0  0
 16 21  1  0  0  0  0
 17 16  2  0  0  0  0
 17 18  1  0  0  0  0
 18 19  2  0  0  0  0
 19 20  1  0  0  0  0
 19 22  1  0  0  0  0
 21 20  2  0  0  0  0
 23 24  1  0  0  0  0
 23 22  1  0  0  0  0
 25 24  2  0  0  0  0
 26 25  1  0  0  0  0
 27 26  2  0  0  0  0
 27 28  1  0  0  0  0
 28 23  2  0  0  0  0
 29  6  1  0  0  0  0
 30 29  2  0  0  0  0
 31 29  1  0  0  0  0
M  END
>  <minimizedAffinity>
-3.92162824

$$$$

 OpenBabel09122223203D

 31 34  0  0  1  0  0  0  0  0999 V2000
    4.2480   -5.5600    4.6590 N   0  0  0  0  0  0  0  0  0  0  0  0
    3.9400   -5.9870    5.9470 C   0  0  0  0  0  0  0  0  0  0  0  0
    4.5550   -5.6380    6.9540 O   0  0  0  0  0  0  0  0  0  0  0  0
    4.3440   -6.4910    3.6130 C   0  0  0  0  0  0  0  0  0  0  0  0
    4.3210   -6.1560    2.3450 N   0  0  0  0  0  0  0  0  0  0  0  0
    4.4740   -7.2900    1.5360 C   0  0  0  0  0  0  0  0  0  0  0  0
    4.6610   -8.4630    2.2450 C   0  0  0  0  0  3  0  0  0  0  0  0
    4.6430   -8.1530    3.9260 S   0  0  0  0  0  0  0  0  0  0  0  0
    8.6720   -2.9180    5.1620 C   0  0  0  0  0  1  0  0  0  0  0  0
    7.1920   -2.8890    4.7790 C   0  0  1  0  0  3  0  0  0  0  0  0
    6.9360   -3.7570    3.5450 C   0  0  0  0  0  2  0  0  0  0  0  0
    5.4530   -3.8220    3.1690 C   0  0  0  0  0  2  0  0  0  0  0  0
    4.4850   -4.1290    4.3320 C   0  0  2  0  0  3  0  0  0  0  0  0
    4.8430   -3.3090    5.5870 C   0  0  0  0  0  2  0  0  0  0  0  0
    6.3240   -3.3570    5.9480 C   0  0  0  0  0  2  0  0  0  0  0  0
    2.7190   -6.8350    6.1560 C   0  0  0  0  0  0  0  0  0  0  0  0
    2.8920   -8.1410    6.6390 C   0  0  0  0  0  3  0  0  0  0  0  0
    1.7840   -8.9500    6.9000 C   0  0  0  0  0  3  0  0  0  0  0  0
    0.4980   -8.4460    6.7070 C   0  0  0  0  0  0  0  0  0  0  0  0
    0.3130   -7.1540    6.2100 C   0  0  0  0  0  3  0  0  0  0  0  0
    1.4220   -6.3440    5.9470 C   0  0  0  0  0  3  0  0  0  0  0  0
   -0.5570   -9.2900    6.9670 O   0  0  0  0  0  0  0  0  0  0  0  0
   -1.4460   -9.5120    5.9390 C   0  0  0  0  0  0  0  0  0  0  0  0
   -2.8310   -9.5330    6.1250 C   0  0  0  0  0  3  0  0  0  0  0  0
   -3.6720   -9.7980    5.0420 C   0  0  0  0  0  3  0  0  0  0  0  0
   -3.1290  -10.0590    3.7830 C   0  0  0  0  0  3  0  0  0  0  0  0
   -1.7450  -10.0610    3.6060 C   0  0  0  0  0  3  0  0  0  0  0  0
   -0.9020   -9.7950    4.6850 C   0  0  0  0  0  3  0  0  0  0  0  0
    4.4480   -7.2740    0.0320 C   0  0  0  0  0  0  0  0  0  0  0  0
    3.2970   -7.2610   -0.5130 O   0  0  0  0  0  1  0  0  0  0  0  0
    5.5640   -7.2690   -0.5740 O   0  0  0  0  0  0  0  0  0  0  0  0
  1  2  1  0  0  0  0
  2 16  1  0  0  0  0
  2  3  2  0  0  0  0
  4  8  1  0  0  0  0
  4  1  1  0  0  0  0
  5  4  2  0  0  0  0
  6  7  2  0  0  0  0
  6  5  1  0  0  0  0
  7  8  1  0  0  0  0
 10  9  1  1  0  0  0
 10 15  1  0  0  0  0
 11 10  1  0  0  0  0
 12 11  1  0  0  0  0
 12 13  1  0  0  0  0
 13  1  1  1  0  0  0
 13 14  1  0  0  0  0
 14 15  1  0  0  0  0
 16 17  1  0  0  0  0
 17 18  2  0  0  0  0
 19 18  1  0  0  0  0
 19 22  1  0  0  0  0
 20 19  2  0  0  0  0
 21 16  2  0  0  0  0
 21 20  1  0  0  0  0
 23 24  1  0  0  0  0
 23 22  1  0  0  0  0
 25 24  2  0  0  0  0
 26 25  1  0  0  0  0
 27 26  2  0  0  0  0
 27 28  1  0  0  0  0
 28 23  2  0  0  0  0
 29  6  1  0  0  0  0
 30 29  1  0  0  0  0
 31 29  2  0  0  0  0
M  END
>  <minimizedAffinity>
-3.82805133

$$$$

 OpenBabel09122223203D

 31 34  0  0  1  0  0  0  0  0999 V2000
    2.3260   -7.1280    4.5830 N   0  0  0  0  0  0  0  0  0  0  0  0
    1.6960   -5.8990    4.7450 C   0  0  0  0  0  0  0  0  0  0  0  0
    0.4930   -5.7130    4.5660 O   0  0  0  0  0  0  0  0  0  0  0  0
    3.5190   -7.2160    3.8480 C   0  0  0  0  0  0  0  0  0  0  0  0
    4.3280   -8.2470    3.9040 N   0  0  0  0  0  0  0  0  0  0  0  0
    5.4130   -8.0680    3.0360 C   0  0  0  0  0  0  0  0  0  0  0  0
    5.3540   -6.8970    2.3010 C   0  0  0  0  0  3  0  0  0  0  0  0
    3.9440   -6.0160    2.6960 S   0  0  0  0  0  0  0  0  0  0  0  0
   -2.5270   -8.0180    6.1500 C   0  0  0  0  0  1  0  0  0  0  0  0
   -1.1030   -8.5540    6.0070 C   0  0  1  0  0  3  0  0  0  0  0  0
   -0.7210   -8.6880    4.5320 C   0  0  0  0  0  2  0  0  0  0  0  0
    0.7280   -9.1470    4.3380 C   0  0  0  0  0  2  0  0  0  0  0  0
    1.7830   -8.3840    5.1660 C   0  0  2  0  0  3  0  0  0  0  0  0
    1.3130   -8.1810    6.6200 C   0  0  0  0  0  2  0  0  0  0  0  0
   -0.1100   -7.6430    6.7330 C   0  0  0  0  0  2  0  0  0  0  0  0
    2.4890   -4.7420    5.2790 C   0  0  0  0  0  0  0  0  0  0  0  0
    3.2620   -4.9430    6.4330 C   0  0  0  0  0  3  0  0  0  0  0  0
    4.0590   -3.9120    6.9370 C   0  0  0  0  0  3  0  0  0  0  0  0
    4.1070   -2.6860    6.2730 C   0  0  0  0  0  0  0  0  0  0  0  0
    3.3290   -2.4690    5.1340 C   0  0  0  0  0  3  0  0  0  0  0  0
    2.5310   -3.4990    4.6290 C   0  0  0  0  0  3  0  0  0  0  0  0
    4.8970   -1.7020    6.8200 O   0  0  0  0  0  0  0  0  0  0  0  0
    6.2510   -1.7810    6.5760 C   0  0  0  0  0  0  0  0  0  0  0  0
    7.1510   -0.7870    6.9670 C   0  0  0  0  0  3  0  0  0  0  0  0
    8.5060   -0.9180    6.6560 C   0  0  0  0  0  3  0  0  0  0  0  0
    8.9550   -2.0300    5.9430 C   0  0  0  0  0  3  0  0  0  0  0  0
    8.0500   -3.0110    5.5350 C   0  0  0  0  0  3  0  0  0  0  0  0
    6.6960   -2.8830    5.8450 C   0  0  0  0  0  3  0  0  0  0  0  0
    6.5530   -9.0370    2.8850 C   0  0  0  0  0  0  0  0  0  0  0  0
    6.6130   -9.9760    3.7430 O   0  0  0  0  0  1  0  0  0  0  0  0
    7.3580   -8.8510    1.9210 O   0  0  0  0  0  0  0  0  0  0  0  0
  1  2  1  0  0  0  0
  2 16  1  0  0  0  0
  3  2  2  0  0  0  0
  4  5  2  0  0  0  0
  4  1  1  0  0  0  0
  6  5  1  0  0  0  0
  7  8  1  0  0  0  0
  7  6  2  0  0  0  0
  8  4  1  0  0  0  0
 10  9  1  6  0  0  0
 10 15  1  0  0  0  0
 11 10  1  0  0  0  0
 12 11  1  0  0  0  0
 12 13  1  0  0  0  0
 13  1  1  6  0  0  0
 13 14  1  0  0  0  0
 14 15  1  0  0  0  0
 16 17  1  0  0  0  0
 17 18  2  0  0  0  0
 19 22  1  0  0  0  0
 19 18  1  0  0  0  0
 20 19  2  0  0  0  0
 21 20  1  0  0  0  0
 21 16  2  0  0  0  0
 23 22  1  0  0  0  0
 23 24  1  0  0  0  0
 25 24  2  0  0  0  0
 26 25  1  0  0  0  0
 27 28  1  0  0  0  0
 27 26  2  0  0  0  0
 28 23  2  0  0  0  0
 29  6  1  0  0  0  0
 29 30  1  0  0  0  0
 31 29  2  0  0  0  0
M  END
>  <minimizedAffinity>
-3.71860886

$$$$
