
 OpenBabel09132204463D

 31 34  0  0  1  0  0  0  0  0999 V2000
    1.2540   -7.3320    6.1470 N   0  0  0  0  0  0  0  0  0  0  0  0
    1.8040   -8.6010    5.9940 C   0  0  0  0  0  0  0  0  0  0  0  0
    1.4920   -9.5740    6.6800 O   0  0  0  0  0  0  0  0  0  0  0  0
    2.0900   -6.2050    6.2000 C   0  0  0  0  0  0  0  0  0  0  0  0
    1.6580   -4.9780    6.0330 N   0  0  0  0  0  0  0  0  0  0  0  0
    2.7090   -4.0630    6.1780 C   0  0  0  0  0  0  0  0  0  0  0  0
    3.9190   -4.6490    6.5070 C   0  0  0  0  0  3  0  0  0  0  0  0
    3.7450   -6.3450    6.6330 S   0  0  0  0  0  0  0  0  0  0  0  0
   -2.5210  -10.0590    3.8860 C   0  0  0  0  0  1  0  0  0  0  0  0
   -2.1460   -8.8740    4.7750 C   0  0  1  0  0  3  0  0  0  0  0  0
   -1.5050   -9.3580    6.0780 C   0  0  0  0  0  2  0  0  0  0  0  0
   -1.0390   -8.2020    6.9690 C   0  0  0  0  0  2  0  0  0  0  0  0
   -0.2120   -7.1090    6.2610 C   0  0  2  0  0  3  0  0  0  0  0  0
   -0.8370   -6.7250    4.9050 C   0  0  0  0  0  2  0  0  0  0  0  0
   -1.1990   -7.9260    4.0370 C   0  0  0  0  0  2  0  0  0  0  0  0
    2.7500   -8.8470    4.8560 C   0  0  0  0  0  0  0  0  0  0  0  0
    2.4070   -8.3570    3.5870 C   0  0  0  0  0  3  0  0  0  0  0  0
    3.2800   -8.5150    2.5090 C   0  0  0  0  0  3  0  0  0  0  0  0
    4.5120   -9.1390    2.7010 C   0  0  0  0  0  0  0  0  0  0  0  0
    4.8580   -9.6470    3.9550 C   0  0  0  0  0  3  0  0  0  0  0  0
    3.9850   -9.4900    5.0350 C   0  0  0  0  0  3  0  0  0  0  0  0
    5.3280   -9.2810    1.6020 O   0  0  0  0  0  0  0  0  0  0  0  0
    5.7130   -8.1260    0.9580 C   0  0  0  0  0  0  0  0  0  0  0  0
    5.2070   -7.7470   -0.2880 C   0  0  0  0  0  3  0  0  0  0  0  0
    5.6680   -6.5790   -0.8980 C   0  0  0  0  0  3  0  0  0  0  0  0
    6.6440   -5.8030   -0.2720 C   0  0  0  0  0  3  0  0  0  0  0  0
    7.1640   -6.1950    0.9620 C   0  0  0  0  0  3  0  0  0  0  0  0
    6.7040   -7.3620    1.5740 C   0  0  0  0  0  3  0  0  0  0  0  0
    2.5750   -2.5760    6.0050 C   0  0  0  0  0  0  0  0  0  0  0  0
    1.7320   -2.1810    5.1360 O   0  0  0  0  0  0  0  0  0  0  0  0
    3.3020   -1.8320    6.7350 O   0  0  0  0  0  1  0  0  0  0  0  0
  1  4  1  0  0  0  0
  2  1  1  0  0  0  0
  2  3  2  0  0  0  0
  4  8  1  0  0  0  0
  5  6  1  0  0  0  0
  5  4  2  0  0  0  0
  6  7  2  0  0  0  0
  7  8  1  0  0  0  0
 10  9  1  6  0  0  0
 10 11  1  0  0  0  0
 11 12  1  0  0  0  0
 13  1  1  6  0  0  0
 13 12  1  0  0  0  0
 14 13  1  0  0  0  0
 15 10  1  0  0  0  0
 15 14  1  0  0  0  0
 16 21  1  0  0  0  0
 16  2  1  0  0  0  0
 17 16  2  0  0  0  0
 18 19  2  0  0  0  0
 18 17  1  0  0  0  0
 19 20  1  0  0  0  0
 20 21  2  0  0  0  0
 22 19  1  0  0  0  0
 23 28  1  0  0  0  0
 23 22  1  0  0  0  0
 24 23  2  0  0  0  0
 25 24  1  0  0  0  0
 25 26  2  0  0  0  0
 26 27  1  0  0  0  0
 27 28  2  0  0  0  0
 29  6  1  0  0  0  0
 29 31  1  0  0  0  0
 30 29  2  0  0  0  0
M  END
>  <minimizedAffinity>
-5.46003485

$$$$
