
 OpenBabel09122222393D

 46 51  0  0  0  0  0  0  0  0999 V2000
    9.1450   -1.9250    4.5810 C   0  0  0  0  0  0  0  0  0  0  0  0
    8.2470   -2.6350    5.3770 C   0  0  0  0  0  3  0  0  0  0  0  0
    8.4740   -2.7700    6.7470 C   0  0  0  0  0  3  0  0  0  0  0  0
    9.6310   -2.2360    7.3240 C   0  0  0  0  0  0  0  0  0  0  0  0
   10.5450   -1.5680    6.5050 C   0  0  0  0  0  0  0  0  0  0  0  0
   11.6860   -1.0800    7.0160 F   0  0  0  0  0  0  0  0  0  0  0  0
   10.3130   -1.4110    5.1380 C   0  0  0  0  0  3  0  0  0  0  0  0
    9.8420   -2.3670    8.7590 C   0  0  0  0  0  0  0  0  0  0  0  0
   10.4910   -3.3720    9.3100 N   0  0  0  0  0  0  0  0  0  0  0  0
   10.5190   -3.1160   10.6580 C   0  0  0  0  0  0  0  0  0  0  0  0
   11.0840   -3.8760   11.6950 C   0  0  0  0  0  3  0  0  0  0  0  0
   11.0170   -3.4090   13.0220 C   0  0  0  0  0  0  0  0  0  0  0  0
   10.3790   -2.1840   13.2760 C   0  0  0  0  0  3  0  0  0  0  0  0
    9.8090   -1.4130   12.2550 C   0  0  0  0  0  3  0  0  0  0  0  0
    9.8920   -1.9070   10.9460 C   0  0  0  0  0  0  0  0  0  0  0  0
    9.4720   -1.4360    9.7180 N   0  0  0  0  0  0  0  0  0  0  0  0
    8.8310   -0.1520    9.4480 C   0  0  0  0  0  3  0  0  0  0  0  0
    7.5720    0.0840   10.2980 C   0  0  0  0  0  2  0  0  0  0  0  0
    6.9110    1.4170    9.9510 C   0  0  0  0  0  2  0  0  0  0  0  0
    7.8950    2.5790   10.0470 C   0  0  0  0  0  2  0  0  0  0  0  0
    9.1310    2.3460    9.1820 C   0  0  0  0  0  2  0  0  0  0  0  0
    9.8160    1.0250    9.5260 C   0  0  0  0  0  2  0  0  0  0  0  0
   11.6290   -4.2090   14.1550 C   0  0  0  0  0  0  0  0  0  0  0  0
   12.6850   -4.8700   13.8990 O   0  0  0  0  0  0  0  0  0  0  0  0
   11.0410   -4.1580   15.2810 O   0  0  0  0  0  1  0  0  0  0  0  0
    8.8230   -1.8260    3.2550 O   0  0  0  0  0  0  0  0  0  0  0  0
    9.7290   -2.4740    2.3510 C   0  0  0  0  0  2  0  0  0  0  0  0
    7.3630   -5.1970    1.0740 C   0  0  0  0  0  0  0  0  0  0  0  0
    7.7610   -5.3010   -0.2590 C   0  0  0  0  0  3  0  0  0  0  0  0
    8.7810   -4.4920   -0.7690 C   0  0  0  0  0  3  0  0  0  0  0  0
    9.4400   -3.5460    0.0340 C   0  0  0  0  0  0  0  0  0  0  0  0
    9.0480   -3.4280    1.3850 C   0  0  0  0  0  0  0  0  0  0  0  0
    8.0050   -4.2440    1.8780 C   0  0  0  0  0  3  0  0  0  0  0  0
   10.5020   -2.7280   -0.5700 C   0  0  0  0  0  0  0  0  0  0  0  0
   11.8070   -3.2250   -0.7140 C   0  0  0  0  0  3  0  0  0  0  0  0
   12.8120   -2.4420   -1.2880 C   0  0  0  0  0  3  0  0  0  0  0  0
   12.5230   -1.1490   -1.7150 C   0  0  0  0  0  0  0  0  0  0  0  0
   13.7600   -0.1850   -2.4240 Cl  0  0  0  0  0  0  0  0  0  0  0  0
   11.2400   -0.6290   -1.5690 C   0  0  0  0  0  3  0  0  0  0  0  0
   10.2370   -1.4140   -0.9930 C   0  0  0  0  0  3  0  0  0  0  0  0
    6.2890   -5.9870    1.5870 N   0  0  0  0  0  0  0  0  0  0  0  0
    6.3060   -7.3790    1.7100 C   0  0  0  0  0  0  0  0  0  0  0  0
    7.6450   -8.0750    1.8160 C   0  0  0  0  0  1  0  0  0  0  0  0
    5.2710   -8.0450    1.8050 O   0  0  0  0  0  0  0  0  0  0  0  0
    4.8750   -5.0530    3.4040 C   0  0  0  0  0  1  0  0  0  0  0  0
    5.0260   -5.3140    1.9120 C   0  0  0  0  0  2  0  0  0  0  0  0
  1  7  2  0  0  0  0
  1  2  1  0  0  0  0
  2  3  2  0  0  0  0
  3  4  1  0  0  0  0
  4  8  1  0  0  0  0
  5  6  1  0  0  0  0
  5  4  2  0  0  0  0
  7  5  1  0  0  0  0
  8  9  2  0  0  0  0
  8 16  1  0  0  0  0
  9 10  1  0  0  0  0
 10 15  2  0  0  0  0
 10 11  1  0  0  0  0
 11 12  2  0  0  0  0
 12 13  1  0  0  0  0
 12 23  1  0  0  0  0
 14 13  2  0  0  0  0
 15 14  1  0  0  0  0
 16 15  1  0  0  0  0
 17 22  1  0  0  0  0
 17 16  1  0  0  0  0
 17 18  1  0  0  0  0
 19 20  1  0  0  0  0
 19 18  1  0  0  0  0
 21 22  1  0  0  0  0
 21 20  1  0  0  0  0
 23 25  1  0  0  0  0
 24 23  2  0  0  0  0
 26  1  1  0  0  0  0
 27 26  1  0  0  0  0
 28 41  1  0  0  0  0
 28 33  1  0  0  0  0
 29 28  2  0  0  0  0
 30 29  1  0  0  0  0
 30 31  2  0  0  0  0
 31 32  1  0  0  0  0
 32 33  2  0  0  0  0
 32 27  1  0  0  0  0
 34 31  1  0  0  0  0
 35 34  1  0  0  0  0
 36 35  2  0  0  0  0
 37 39  2  0  0  0  0
 37 36  1  0  0  0  0
 38 37  1  0  0  0  0
 39 40  1  0  0  0  0
 40 34  2  0  0  0  0
 41 42  1  0  0  0  0
 41 46  1  0  0  0  0
 42 44  2  0  0  0  0
 42 43  1  0  0  0  0
 46 45  1  0  0  0  0
M  END
>  <minimizedAffinity>
-7.95654535

$$$$
