
 OpenBabel09122222393D

 46 51  0  0  0  0  0  0  0  0999 V2000
    3.3110   -1.2170    7.6520 C   0  0  0  0  0  0  0  0  0  0  0  0
    2.2530   -1.6690    6.8640 C   0  0  0  0  0  3  0  0  0  0  0  0
    2.4790   -2.5940    5.8440 C   0  0  0  0  0  3  0  0  0  0  0  0
    3.7770   -3.0390    5.5740 C   0  0  0  0  0  0  0  0  0  0  0  0
    4.8340   -2.5410    6.3410 C   0  0  0  0  0  0  0  0  0  0  0  0
    6.0960   -2.9120    6.0820 F   0  0  0  0  0  0  0  0  0  0  0  0
    4.6110   -1.6320    7.3760 C   0  0  0  0  0  3  0  0  0  0  0  0
    3.9930   -4.0200    4.5190 C   0  0  0  0  0  0  0  0  0  0  0  0
    4.5210   -3.7280    3.3490 N   0  0  0  0  0  0  0  0  0  0  0  0
    4.6020   -4.9110    2.6590 C   0  0  0  0  0  0  0  0  0  0  0  0
    5.0850   -5.1520    1.3630 C   0  0  0  0  0  3  0  0  0  0  0  0
    5.0970   -6.4660    0.8520 C   0  0  0  0  0  0  0  0  0  0  0  0
    4.6190   -7.5090    1.6620 C   0  0  0  0  0  3  0  0  0  0  0  0
    4.1330   -7.2870    2.9570 C   0  0  0  0  0  3  0  0  0  0  0  0
    4.1340   -5.9690    3.4330 C   0  0  0  0  0  0  0  0  0  0  0  0
    3.7570   -5.3830    4.6250 N   0  0  0  0  0  0  0  0  0  0  0  0
    3.2750   -6.0680    5.8210 C   0  0  0  0  0  3  0  0  0  0  0  0
    3.9900   -5.6170    7.1040 C   0  0  0  0  0  2  0  0  0  0  0  0
    3.4850   -6.3910    8.3210 C   0  0  0  0  0  2  0  0  0  0  0  0
    1.9660   -6.3130    8.4520 C   0  0  0  0  0  2  0  0  0  0  0  0
    1.2650   -6.7850    7.1820 C   0  0  0  0  0  2  0  0  0  0  0  0
    1.7450   -6.0110    5.9550 C   0  0  0  0  0  2  0  0  0  0  0  0
    5.6230   -6.7490   -0.5410 C   0  0  0  0  0  0  0  0  0  0  0  0
    5.3100   -7.8630   -1.0670 O   0  0  0  0  0  1  0  0  0  0  0  0
    6.3360   -5.8470   -1.0830 O   0  0  0  0  0  0  0  0  0  0  0  0
    2.9850   -0.3310    8.6420 O   0  0  0  0  0  0  0  0  0  0  0  0
    4.0230   -0.0640    9.5960 C   0  0  0  0  0  2  0  0  0  0  0  0
    2.7100   -2.1420   12.5280 C   0  0  0  0  0  0  0  0  0  0  0  0
    3.8930   -2.6940   13.0220 C   0  0  0  0  0  3  0  0  0  0  0  0
    5.1220   -2.4200   12.4140 C   0  0  0  0  0  3  0  0  0  0  0  0
    5.2150   -1.5840   11.2880 C   0  0  0  0  0  0  0  0  0  0  0  0
    4.0280   -1.0190   10.7760 C   0  0  0  0  0  0  0  0  0  0  0  0
    2.7930   -1.3210   11.3950 C   0  0  0  0  0  3  0  0  0  0  0  0
    6.5410   -1.3410   10.7000 C   0  0  0  0  0  0  0  0  0  0  0  0
    7.2650   -0.1770   11.0010 C   0  0  0  0  0  3  0  0  0  0  0  0
    8.5240    0.0490   10.4380 C   0  0  0  0  0  3  0  0  0  0  0  0
    9.0670   -0.8860    9.5600 C   0  0  0  0  0  0  0  0  0  0  0  0
   10.6180   -0.6080    8.8680 Cl  0  0  0  0  0  0  0  0  0  0  0  0
    8.3600   -2.0400    9.2350 C   0  0  0  0  0  3  0  0  0  0  0  0
    7.1010   -2.2620    9.7980 C   0  0  0  0  0  3  0  0  0  0  0  0
    1.4470   -2.4580   13.1150 N   0  0  0  0  0  0  0  0  0  0  0  0
    0.7860   -1.6730   14.0640 C   0  0  0  0  0  0  0  0  0  0  0  0
    1.1010   -0.1950   14.1200 C   0  0  0  0  0  1  0  0  0  0  0  0
   -0.0920   -2.1300   14.8020 O   0  0  0  0  0  0  0  0  0  0  0  0
    0.6140   -3.9330   11.2970 C   0  0  0  0  0  1  0  0  0  0  0  0
    0.8360   -3.7520   12.7920 C   0  0  0  0  0  2  0  0  0  0  0  0
  1 26  1  0  0  0  0
  2  1  2  0  0  0  0
  3  2  1  0  0  0  0
  4  3  2  0  0  0  0
  4  5  1  0  0  0  0
  5  7  2  0  0  0  0
  6  5  1  0  0  0  0
  7  1  1  0  0  0  0
  8 16  1  0  0  0  0
  8  4  1  0  0  0  0
  9  8  2  0  0  0  0
 10  9  1  0  0  0  0
 10 15  1  0  0  0  0
 11 10  2  0  0  0  0
 12 11  1  0  0  0  0
 12 13  2  0  0  0  0
 13 14  1  0  0  0  0
 14 15  2  0  0  0  0
 15 16  1  0  0  0  0
 16 17  1  0  0  0  0
 17 22  1  0  0  0  0
 17 18  1  0  0  0  0
 18 19  1  0  0  0  0
 19 20  1  0  0  0  0
 21 20  1  0  0  0  0
 22 21  1  0  0  0  0
 23 12  1  0  0  0  0
 24 23  1  0  0  0  0
 25 23  2  0  0  0  0
 26 27  1  0  0  0  0
 27 32  1  0  0  0  0
 28 29  1  0  0  0  0
 28 41  1  0  0  0  0
 30 29  2  0  0  0  0
 31 30  1  0  0  0  0
 32 31  2  0  0  0  0
 32 33  1  0  0  0  0
 33 28  2  0  0  0  0
 34 35  1  0  0  0  0
 34 31  1  0  0  0  0
 36 35  2  0  0  0  0
 37 36  1  0  0  0  0
 38 37  1  0  0  0  0
 39 37  2  0  0  0  0
 39 40  1  0  0  0  0
 40 34  2  0  0  0  0
 41 42  1  0  0  0  0
 42 43  1  0  0  0  0
 42 44  2  0  0  0  0
 45 46  1  0  0  0  0
 46 41  1  0  0  0  0
M  END
>  <minimizedAffinity>
-8.29558372

$$$$
