
 OpenBabel09122222393D

 46 51  0  0  0  0  0  0  0  0999 V2000
    9.3300   -2.4940    4.7270 C   0  0  0  0  0  0  0  0  0  0  0  0
   10.2930   -1.4870    4.7840 C   0  0  0  0  0  3  0  0  0  0  0  0
   10.2310   -0.5090    5.7770 C   0  0  0  0  0  3  0  0  0  0  0  0
    9.1730   -0.5020    6.6920 C   0  0  0  0  0  0  0  0  0  0  0  0
    8.1890   -1.4890    6.5920 C   0  0  0  0  0  0  0  0  0  0  0  0
    7.1380   -1.4890    7.4260 F   0  0  0  0  0  0  0  0  0  0  0  0
    8.2580   -2.4830    5.6160 C   0  0  0  0  0  3  0  0  0  0  0  0
    9.1340    0.5150    7.7340 C   0  0  0  0  0  0  0  0  0  0  0  0
    8.6210    1.7160    7.5620 N   0  0  0  0  0  0  0  0  0  0  0  0
    8.7280    2.3550    8.7710 C   0  0  0  0  0  0  0  0  0  0  0  0
    8.3370    3.6560    9.1260 C   0  0  0  0  0  3  0  0  0  0  0  0
    8.5210    4.1070   10.4480 C   0  0  0  0  0  0  0  0  0  0  0  0
    9.0990    3.2360   11.3840 C   0  0  0  0  0  3  0  0  0  0  0  0
    9.4970    1.9340   11.0490 C   0  0  0  0  0  3  0  0  0  0  0  0
    9.3000    1.5180    9.7250 C   0  0  0  0  0  0  0  0  0  0  0  0
    9.5460    0.3410    9.0470 N   0  0  0  0  0  0  0  0  0  0  0  0
   10.0650   -0.9010    9.6140 C   0  0  0  0  0  3  0  0  0  0  0  0
   11.4820   -0.7560   10.1900 C   0  0  0  0  0  2  0  0  0  0  0  0
   12.0000   -2.0880   10.7310 C   0  0  0  0  0  2  0  0  0  0  0  0
   11.0320   -2.7060   11.7360 C   0  0  0  0  0  2  0  0  0  0  0  0
    9.6330   -2.8670   11.1480 C   0  0  0  0  0  2  0  0  0  0  0  0
    9.0910   -1.5420   10.6160 C   0  0  0  0  0  2  0  0  0  0  0  0
    8.0970    5.5050   10.8540 C   0  0  0  0  0  0  0  0  0  0  0  0
    7.7520    5.6810   12.0650 O   0  0  0  0  0  1  0  0  0  0  0  0
    8.1210    6.4000    9.9510 O   0  0  0  0  0  0  0  0  0  0  0  0
    9.4900   -3.4220    3.7350 O   0  0  0  0  0  0  0  0  0  0  0  0
    9.5600   -2.8950    2.4030 C   0  0  0  0  0  2  0  0  0  0  0  0
    7.1170   -5.4490    0.9380 C   0  0  0  0  0  0  0  0  0  0  0  0
    7.4940   -5.4480   -0.4060 C   0  0  0  0  0  3  0  0  0  0  0  0
    8.5250   -4.6200   -0.8620 C   0  0  0  0  0  3  0  0  0  0  0  0
    9.2160   -3.7600    0.0090 C   0  0  0  0  0  0  0  0  0  0  0  0
    8.8450   -3.7480    1.3710 C   0  0  0  0  0  0  0  0  0  0  0  0
    7.7910   -4.5820    1.8090 C   0  0  0  0  0  3  0  0  0  0  0  0
   10.2880   -2.9160   -0.5410 C   0  0  0  0  0  0  0  0  0  0  0  0
   10.0590   -1.5660   -0.8510 C   0  0  0  0  0  3  0  0  0  0  0  0
   11.0820   -0.7700   -1.3750 C   0  0  0  0  0  3  0  0  0  0  0  0
   12.3410   -1.3200   -1.6010 C   0  0  0  0  0  0  0  0  0  0  0  0
   13.6000   -0.3390   -2.2440 Cl  0  0  0  0  0  0  0  0  0  0  0  0
   12.5860   -2.6600   -1.3150 C   0  0  0  0  0  3  0  0  0  0  0  0
   11.5610   -3.4540   -0.7940 C   0  0  0  0  0  3  0  0  0  0  0  0
    6.0330   -6.2570    1.3980 N   0  0  0  0  0  0  0  0  0  0  0  0
    6.1130   -7.6250    1.6730 C   0  0  0  0  0  0  0  0  0  0  0  0
    7.4650   -8.2110    2.0170 C   0  0  0  0  0  1  0  0  0  0  0  0
    5.1150   -8.3490    1.7130 O   0  0  0  0  0  0  0  0  0  0  0  0
    4.4120   -5.0960    2.8810 C   0  0  0  0  0  1  0  0  0  0  0  0
    4.7030   -5.6450    1.4910 C   0  0  0  0  0  2  0  0  0  0  0  0
  1  2  2  0  0  0  0
  1  7  1  0  0  0  0
  2  3  1  0  0  0  0
  3  4  2  0  0  0  0
  4  8  1  0  0  0  0
  5  4  1  0  0  0  0
  5  6  1  0  0  0  0
  7  5  2  0  0  0  0
  8 16  1  0  0  0  0
  9  8  2  0  0  0  0
  9 10  1  0  0  0  0
 10 11  2  0  0  0  0
 10 15  1  0  0  0  0
 11 12  1  0  0  0  0
 12 23  1  0  0  0  0
 12 13  2  0  0  0  0
 14 13  1  0  0  0  0
 15 14  2  0  0  0  0
 16 17  1  0  0  0  0
 16 15  1  0  0  0  0
 17 18  1  0  0  0  0
 17 22  1  0  0  0  0
 18 19  1  0  0  0  0
 19 20  1  0  0  0  0
 21 20  1  0  0  0  0
 22 21  1  0  0  0  0
 23 24  1  0  0  0  0
 25 23  2  0  0  0  0
 26  1  1  0  0  0  0
 27 26  1  0  0  0  0
 28 41  1  0  0  0  0
 28 33  1  0  0  0  0
 29 28  2  0  0  0  0
 30 29  1  0  0  0  0
 30 31  2  0  0  0  0
 31 32  1  0  0  0  0
 32 33  2  0  0  0  0
 32 27  1  0  0  0  0
 34 31  1  0  0  0  0
 35 34  2  0  0  0  0
 36 35  1  0  0  0  0
 37 36  2  0  0  0  0
 37 39  1  0  0  0  0
 38 37  1  0  0  0  0
 39 40  2  0  0  0  0
 40 34  1  0  0  0  0
 41 46  1  0  0  0  0
 41 42  1  0  0  0  0
 42 44  2  0  0  0  0
 42 43  1  0  0  0  0
 46 45  1  0  0  0  0
M  END
>  <minimizedAffinity>
-8.35071087

$$$$
