
 OpenBabel09122222393D

 46 51  0  0  0  0  0  0  0  0999 V2000
    9.4750   -2.2830    4.8190 C   0  0  0  0  0  0  0  0  0  0  0  0
    8.4400   -2.9420    5.4830 C   0  0  0  0  0  3  0  0  0  0  0  0
    7.8460   -2.3680    6.6070 C   0  0  0  0  0  3  0  0  0  0  0  0
    8.3170   -1.1500    7.1060 C   0  0  0  0  0  0  0  0  0  0  0  0
    9.3860   -0.5240    6.4590 C   0  0  0  0  0  0  0  0  0  0  0  0
    9.8920    0.6230    6.9350 F   0  0  0  0  0  0  0  0  0  0  0  0
    9.9700   -1.0830    5.3220 C   0  0  0  0  0  3  0  0  0  0  0  0
    7.6720   -0.5540    8.2690 C   0  0  0  0  0  0  0  0  0  0  0  0
    8.2570    0.3250    9.0560 N   0  0  0  0  0  0  0  0  0  0  0  0
    7.3230    0.6790    9.9960 C   0  0  0  0  0  0  0  0  0  0  0  0
    7.4380    1.5780   11.0680 C   0  0  0  0  0  3  0  0  0  0  0  0
    6.3310    1.8120   11.9080 C   0  0  0  0  0  0  0  0  0  0  0  0
    5.1310    1.1310   11.6490 C   0  0  0  0  0  3  0  0  0  0  0  0
    4.9970    0.2300   10.5840 C   0  0  0  0  0  3  0  0  0  0  0  0
    6.1180    0.0200    9.7700 C   0  0  0  0  0  0  0  0  0  0  0  0
    6.3560   -0.7590    8.6540 N   0  0  0  0  0  0  0  0  0  0  0  0
    5.3850   -1.5870    7.9440 C   0  0  0  0  0  3  0  0  0  0  0  0
    5.0060   -2.8640    8.7120 C   0  0  0  0  0  2  0  0  0  0  0  0
    4.0240   -3.7200    7.9130 C   0  0  0  0  0  2  0  0  0  0  0  0
    2.7960   -2.9210    7.4840 C   0  0  0  0  0  2  0  0  0  0  0  0
    3.1810   -1.6680    6.7030 C   0  0  0  0  0  2  0  0  0  0  0  0
    4.1500   -0.7910    7.4930 C   0  0  0  0  0  2  0  0  0  0  0  0
    6.4310    2.7860   13.0660 C   0  0  0  0  0  0  0  0  0  0  0  0
    6.0930    3.9910   12.8450 O   0  0  0  0  0  0  0  0  0  0  0  0
    6.8440    2.3220   14.1750 O   0  0  0  0  0  1  0  0  0  0  0  0
    9.9760   -2.9130    3.7140 O   0  0  0  0  0  0  0  0  0  0  0  0
    9.5420   -2.3840    2.4530 C   0  0  0  0  0  2  0  0  0  0  0  0
    7.1030   -5.1160    1.3440 C   0  0  0  0  0  0  0  0  0  0  0  0
    7.5750   -5.3980    0.0620 C   0  0  0  0  0  3  0  0  0  0  0  0
    8.6700   -4.7100   -0.4690 C   0  0  0  0  0  3  0  0  0  0  0  0
    9.3330   -3.7090    0.2620 C   0  0  0  0  0  0  0  0  0  0  0  0
    8.8670   -3.4100    1.5600 C   0  0  0  0  0  0  0  0  0  0  0  0
    7.7490   -4.1080    2.0730 C   0  0  0  0  0  3  0  0  0  0  0  0
   10.4760   -3.0250   -0.3600 C   0  0  0  0  0  0  0  0  0  0  0  0
   10.3190   -1.7820   -0.9930 C   0  0  0  0  0  3  0  0  0  0  0  0
   11.4100   -1.1370   -1.5850 C   0  0  0  0  0  3  0  0  0  0  0  0
   12.6670   -1.7350   -1.5550 C   0  0  0  0  0  0  0  0  0  0  0  0
   14.0090   -0.9400   -2.2810 Cl  0  0  0  0  0  0  0  0  0  0  0  0
   12.8430   -2.9750   -0.9460 C   0  0  0  0  0  3  0  0  0  0  0  0
   11.7500   -3.6180   -0.3580 C   0  0  0  0  0  3  0  0  0  0  0  0
    5.9550   -5.7830    1.8710 N   0  0  0  0  0  0  0  0  0  0  0  0
    5.7930   -7.1700    1.9330 C   0  0  0  0  0  0  0  0  0  0  0  0
    7.0300   -8.0390    1.9470 C   0  0  0  0  0  1  0  0  0  0  0  0
    4.6830   -7.6990    2.0470 O   0  0  0  0  0  0  0  0  0  0  0  0
    4.7400   -4.7780    3.7920 C   0  0  0  0  0  1  0  0  0  0  0  0
    4.8070   -4.9680    2.2830 C   0  0  0  0  0  2  0  0  0  0  0  0
  1  7  2  0  0  0  0
  1  2  1  0  0  0  0
  2  3  2  0  0  0  0
  3  4  1  0  0  0  0
  4  8  1  0  0  0  0
  5  6  1  0  0  0  0
  5  4  2  0  0  0  0
  7  5  1  0  0  0  0
  8 16  1  0  0  0  0
  8  9  2  0  0  0  0
  9 10  1  0  0  0  0
 10 11  1  0  0  0  0
 11 12  2  0  0  0  0
 12 23  1  0  0  0  0
 13 12  1  0  0  0  0
 14 13  2  0  0  0  0
 15 10  2  0  0  0  0
 15 14  1  0  0  0  0
 16 15  1  0  0  0  0
 17 16  1  0  0  0  0
 17 18  1  0  0  0  0
 19 18  1  0  0  0  0
 20 19  1  0  0  0  0
 21 20  1  0  0  0  0
 21 22  1  0  0  0  0
 22 17  1  0  0  0  0
 23 25  1  0  0  0  0
 24 23  2  0  0  0  0
 26  1  1  0  0  0  0
 27 26  1  0  0  0  0
 28 41  1  0  0  0  0
 28 33  1  0  0  0  0
 29 28  2  0  0  0  0
 30 29  1  0  0  0  0
 30 31  2  0  0  0  0
 31 32  1  0  0  0  0
 32 33  2  0  0  0  0
 32 27  1  0  0  0  0
 34 40  1  0  0  0  0
 34 31  1  0  0  0  0
 35 34  2  0  0  0  0
 36 37  2  0  0  0  0
 36 35  1  0  0  0  0
 37 39  1  0  0  0  0
 38 37  1  0  0  0  0
 39 40  2  0  0  0  0
 41 42  1  0  0  0  0
 41 46  1  0  0  0  0
 42 43  1  0  0  0  0
 42 44  2  0  0  0  0
 46 45  1  0  0  0  0
M  END
>  <minimizedAffinity>
-8.28418827

$$$$
