
 OpenBabel09122222393D

 46 51  0  0  0  0  0  0  0  0999 V2000
    3.2560   -1.2630    7.5280 C   0  0  0  0  0  0  0  0  0  0  0  0
    2.2180   -1.6630    6.6850 C   0  0  0  0  0  3  0  0  0  0  0  0
    2.4520   -2.5960    5.6750 C   0  0  0  0  0  3  0  0  0  0  0  0
    3.7400   -3.1010    5.4680 C   0  0  0  0  0  0  0  0  0  0  0  0
    4.7790   -2.6550    6.2890 C   0  0  0  0  0  0  0  0  0  0  0  0
    6.0340   -3.0840    6.0920 F   0  0  0  0  0  0  0  0  0  0  0  0
    4.5470   -1.7380    7.3150 C   0  0  0  0  0  3  0  0  0  0  0  0
    3.9620   -4.0900    4.4220 C   0  0  0  0  0  0  0  0  0  0  0  0
    4.5110   -3.8090    3.2580 N   0  0  0  0  0  0  0  0  0  0  0  0
    4.5910   -4.9960    2.5760 C   0  0  0  0  0  0  0  0  0  0  0  0
    5.0910   -5.2490    1.2890 C   0  0  0  0  0  3  0  0  0  0  0  0
    5.0980   -6.5660    0.7850 C   0  0  0  0  0  0  0  0  0  0  0  0
    4.5970   -7.6000    1.5920 C   0  0  0  0  0  3  0  0  0  0  0  0
    4.0930   -7.3660    2.8790 C   0  0  0  0  0  3  0  0  0  0  0  0
    4.1000   -6.0460    3.3480 C   0  0  0  0  0  0  0  0  0  0  0  0
    3.7100   -5.4500    4.5300 N   0  0  0  0  0  0  0  0  0  0  0  0
    3.2030   -6.1240    5.7220 C   0  0  0  0  0  3  0  0  0  0  0  0
    3.8930   -5.6630    7.0160 C   0  0  0  0  0  2  0  0  0  0  0  0
    3.3620   -6.4260    8.2290 C   0  0  0  0  0  2  0  0  0  0  0  0
    1.8410   -6.3440    8.3290 C   0  0  0  0  0  2  0  0  0  0  0  0
    1.1640   -6.8240    7.0490 C   0  0  0  0  0  2  0  0  0  0  0  0
    1.6700   -6.0620    5.8260 C   0  0  0  0  0  2  0  0  0  0  0  0
    5.6420   -6.8610   -0.5980 C   0  0  0  0  0  0  0  0  0  0  0  0
    5.3330   -7.9790   -1.1200 O   0  0  0  0  0  1  0  0  0  0  0  0
    6.3660   -5.9660   -1.1370 O   0  0  0  0  0  0  0  0  0  0  0  0
    2.9230   -0.3640    8.5030 O   0  0  0  0  0  0  0  0  0  0  0  0
    2.8060   -0.9040    9.8260 C   0  0  0  0  0  2  0  0  0  0  0  0
    6.1870    0.4180   11.0330 C   0  0  0  0  0  0  0  0  0  0  0  0
    6.5140   -0.5210   12.0110 C   0  0  0  0  0  3  0  0  0  0  0  0
    5.6510   -1.5810   12.3060 C   0  0  0  0  0  3  0  0  0  0  0  0
    4.4270   -1.7400   11.6360 C   0  0  0  0  0  0  0  0  0  0  0  0
    4.0810   -0.7970   10.6440 C   0  0  0  0  0  0  0  0  0  0  0  0
    4.9600    0.2760   10.3710 C   0  0  0  0  0  3  0  0  0  0  0  0
    3.5680   -2.8770   12.0000 C   0  0  0  0  0  0  0  0  0  0  0  0
    2.6050   -2.7620   13.0150 C   0  0  0  0  0  3  0  0  0  0  0  0
    1.7930   -3.8470   13.3570 C   0  0  0  0  0  3  0  0  0  0  0  0
    1.9440   -5.0620   12.6920 C   0  0  0  0  0  0  0  0  0  0  0  0
    0.9430   -6.3970   13.1120 Cl  0  0  0  0  0  0  0  0  0  0  0  0
    2.9030   -5.2030   11.6930 C   0  0  0  0  0  3  0  0  0  0  0  0
    3.7150   -4.1160   11.3540 C   0  0  0  0  0  3  0  0  0  0  0  0
    7.0430    1.5300   10.7620 N   0  0  0  0  0  0  0  0  0  0  0  0
    6.8130    2.8410   11.1890 C   0  0  0  0  0  0  0  0  0  0  0  0
    5.9410    3.0590   12.4050 C   0  0  0  0  0  1  0  0  0  0  0  0
    7.3510    3.8130   10.6510 O   0  0  0  0  0  0  0  0  0  0  0  0
    7.7920    1.1460    8.4240 C   0  0  0  0  0  1  0  0  0  0  0  0
    8.1970    1.3180    9.8810 C   0  0  0  0  0  2  0  0  0  0  0  0
  1 26  1  0  0  0  0
  2  1  2  0  0  0  0
  3  2  1  0  0  0  0
  4  3  2  0  0  0  0
  4  5  1  0  0  0  0
  5  7  2  0  0  0  0
  6  5  1  0  0  0  0
  7  1  1  0  0  0  0
  8 16  1  0  0  0  0
  8  4  1  0  0  0  0
  9  8  2  0  0  0  0
 10  9  1  0  0  0  0
 10 15  1  0  0  0  0
 11 10  2  0  0  0  0
 12 11  1  0  0  0  0
 12 13  2  0  0  0  0
 13 14  1  0  0  0  0
 14 15  2  0  0  0  0
 15 16  1  0  0  0  0
 16 17  1  0  0  0  0
 17 22  1  0  0  0  0
 17 18  1  0  0  0  0
 18 19  1  0  0  0  0
 19 20  1  0  0  0  0
 21 20  1  0  0  0  0
 22 21  1  0  0  0  0
 23 12  1  0  0  0  0
 24 23  1  0  0  0  0
 25 23  2  0  0  0  0
 26 27  1  0  0  0  0
 27 32  1  0  0  0  0
 28 29  1  0  0  0  0
 29 30  2  0  0  0  0
 31 34  1  0  0  0  0
 31 30  1  0  0  0  0
 32 31  2  0  0  0  0
 33 32  1  0  0  0  0
 33 28  2  0  0  0  0
 34 35  1  0  0  0  0
 35 36  2  0  0  0  0
 37 38  1  0  0  0  0
 37 36  1  0  0  0  0
 39 37  2  0  0  0  0
 40 39  1  0  0  0  0
 40 34  2  0  0  0  0
 41 28  1  0  0  0  0
 41 42  1  0  0  0  0
 42 43  1  0  0  0  0
 44 42  2  0  0  0  0
 45 46  1  0  0  0  0
 46 41  1  0  0  0  0
M  END
>  <minimizedAffinity>
-8.35825634

$$$$
