
 OpenBabel09122222393D

 46 51  0  0  0  0  0  0  0  0999 V2000
    4.0260   -2.6560    5.5140 C   0  0  0  0  0  0  0  0  0  0  0  0
    3.1640   -1.9220    6.3280 C   0  0  0  0  0  3  0  0  0  0  0  0
    3.5170   -1.6300    7.6460 C   0  0  0  0  0  3  0  0  0  0  0  0
    4.7180   -2.1140    8.1760 C   0  0  0  0  0  0  0  0  0  0  0  0
    5.5490   -2.8890    7.3620 C   0  0  0  0  0  0  0  0  0  0  0  0
    6.6870   -3.4060    7.8490 F   0  0  0  0  0  0  0  0  0  0  0  0
    5.2110   -3.1660    6.0380 C   0  0  0  0  0  3  0  0  0  0  0  0
    5.0810   -1.7830    9.5470 C   0  0  0  0  0  0  0  0  0  0  0  0
    5.9360   -0.8320    9.8640 N   0  0  0  0  0  0  0  0  0  0  0  0
    5.9760   -0.7960   11.2350 C   0  0  0  0  0  0  0  0  0  0  0  0
    6.7320    0.0320   12.0800 C   0  0  0  0  0  3  0  0  0  0  0  0
    6.6000   -0.0850   13.4780 C   0  0  0  0  0  0  0  0  0  0  0  0
    5.7090   -1.0400   13.9940 C   0  0  0  0  0  3  0  0  0  0  0  0
    4.9470   -1.8760   13.1670 C   0  0  0  0  0  3  0  0  0  0  0  0
    5.1030   -1.7330   11.7820 C   0  0  0  0  0  0  0  0  0  0  0  0
    4.5320   -2.3500   10.6870 N   0  0  0  0  0  0  0  0  0  0  0  0
    3.4750   -3.3580   10.7060 C   0  0  0  0  0  3  0  0  0  0  0  0
    3.8280   -4.5860   11.5590 C   0  0  0  0  0  2  0  0  0  0  0  0
    2.7140   -5.6310   11.5140 C   0  0  0  0  0  2  0  0  0  0  0  0
    1.3620   -5.0350   11.8960 C   0  0  0  0  0  2  0  0  0  0  0  0
    1.0100   -3.8300   11.0280 C   0  0  0  0  0  2  0  0  0  0  0  0
    2.1050   -2.7670   11.0740 C   0  0  0  0  0  2  0  0  0  0  0  0
    7.4000    0.8060   14.4080 C   0  0  0  0  0  0  0  0  0  0  0  0
    8.4380    0.3060   14.9450 O   0  0  0  0  0  1  0  0  0  0  0  0
    6.9730    1.9910   14.5790 O   0  0  0  0  0  0  0  0  0  0  0  0
    3.6030   -2.8690    4.2310 O   0  0  0  0  0  0  0  0  0  0  0  0
    2.7930   -4.0360    4.0340 C   0  0  0  0  0  2  0  0  0  0  0  0
    5.2180   -6.4070    2.2640 C   0  0  0  0  0  0  0  0  0  0  0  0
    5.0710   -7.5670    3.0260 C   0  0  0  0  0  3  0  0  0  0  0  0
    4.2050   -7.6010    4.1230 C   0  0  0  0  0  3  0  0  0  0  0  0
    3.4550   -6.4740    4.5020 C   0  0  0  0  0  0  0  0  0  0  0  0
    3.5940   -5.2930    3.7420 C   0  0  0  0  0  0  0  0  0  0  0  0
    4.4860   -5.2750    2.6450 C   0  0  0  0  0  3  0  0  0  0  0  0
    2.5650   -6.5810    5.6680 C   0  0  0  0  0  0  0  0  0  0  0  0
    1.3370   -7.2550    5.5830 C   0  0  0  0  0  3  0  0  0  0  0  0
    0.4950   -7.3520    6.6940 C   0  0  0  0  0  3  0  0  0  0  0  0
    0.8710   -6.7660    7.9010 C   0  0  0  0  0  0  0  0  0  0  0  0
   -0.1640   -6.8870    9.2700 Cl  0  0  0  0  0  0  0  0  0  0  0  0
    2.0780   -6.0790    8.0040 C   0  0  0  0  0  3  0  0  0  0  0  0
    2.9160   -5.9830    6.8900 C   0  0  0  0  0  3  0  0  0  0  0  0
    6.1380   -6.3540    1.1720 N   0  0  0  0  0  0  0  0  0  0  0  0
    7.0940   -5.3530    0.9780 C   0  0  0  0  0  0  0  0  0  0  0  0
    7.5720   -4.5720    2.1820 C   0  0  0  0  0  1  0  0  0  0  0  0
    7.6080   -5.1370   -0.1230 O   0  0  0  0  0  0  0  0  0  0  0  0
    4.6990   -7.2340   -0.6530 C   0  0  0  0  0  1  0  0  0  0  0  0
    6.0120   -7.3570    0.1090 C   0  0  0  0  0  2  0  0  0  0  0  0
  1  7  2  0  0  0  0
  1  2  1  0  0  0  0
  2  3  2  0  0  0  0
  3  4  1  0  0  0  0
  4  8  1  0  0  0  0
  5  6  1  0  0  0  0
  5  4  2  0  0  0  0
  7  5  1  0  0  0  0
  8  9  2  0  0  0  0
  8 16  1  0  0  0  0
  9 10  1  0  0  0  0
 10 15  2  0  0  0  0
 10 11  1  0  0  0  0
 11 12  2  0  0  0  0
 12 13  1  0  0  0  0
 12 23  1  0  0  0  0
 14 13  2  0  0  0  0
 15 14  1  0  0  0  0
 16 17  1  0  0  0  0
 16 15  1  0  0  0  0
 17 22  1  0  0  0  0
 17 18  1  0  0  0  0
 19 18  1  0  0  0  0
 19 20  1  0  0  0  0
 21 22  1  0  0  0  0
 21 20  1  0  0  0  0
 23 25  2  0  0  0  0
 23 24  1  0  0  0  0
 26  1  1  0  0  0  0
 27 26  1  0  0  0  0
 28 33  2  0  0  0  0
 28 29  1  0  0  0  0
 29 30  2  0  0  0  0
 30 31  1  0  0  0  0
 31 34  1  0  0  0  0
 32 27  1  0  0  0  0
 32 31  2  0  0  0  0
 33 32  1  0  0  0  0
 34 40  1  0  0  0  0
 35 34  2  0  0  0  0
 35 36  1  0  0  0  0
 36 37  2  0  0  0  0
 37 39  1  0  0  0  0
 37 38  1  0  0  0  0
 40 39  2  0  0  0  0
 41 28  1  0  0  0  0
 42 41  1  0  0  0  0
 42 43  1  0  0  0  0
 44 42  2  0  0  0  0
 45 46  1  0  0  0  0
 46 41  1  0  0  0  0
M  END
>  <minimizedAffinity>
-8.01677704

$$$$
