
 OpenBabel09122218553D

 36 39  0  0  1  0  0  0  0  0999 V2000
    7.5400   -4.3180    2.9920 O   0  0  0  0  0  0  0  0  0  0  0  0
    7.6740   -3.5520    3.9390 C   0  0  0  0  0  0  0  0  0  0  0  0
    6.6440   -3.5560    5.0420 C   0  0  1  0  0  3  0  0  0  0  0  0
    7.1560   -3.1800    6.2360 C   0  0  1  0  0  3  0  0  0  0  0  0
    8.5400   -2.6410    6.2850 C   0  0  0  0  0  0  0  0  0  0  0  0
    9.2680   -2.4830    7.4610 C   0  0  0  0  0  3  0  0  0  0  0  0
   10.4910   -1.8190    7.4090 C   0  0  0  0  0  3  0  0  0  0  0  0
   10.9310   -1.3190    6.1880 C   0  0  0  0  0  3  0  0  0  0  0  0
   10.2490   -1.4410    5.0270 N   0  0  0  0  0  0  0  0  0  0  0  0
    9.0750   -2.0960    5.0960 C   0  0  0  0  0  0  0  0  0  0  0  0
    8.2700   -2.2880    3.9340 N   0  0  0  0  0  0  0  0  0  0  0  0
    5.4730   -2.8500    4.3640 C   0  0  2  0  0  3  0  0  0  0  0  0
    4.5700   -2.3380    5.1970 N   0  0  0  0  0  0  0  0  0  0  0  0
    2.9820   -2.7210    5.1440 S   0  0  0  0  0  0  0  0  0  0  0  0
    2.4560   -2.7370    6.4920 O   0  0  0  0  0  0  0  0  0  0  0  0
    2.2960   -1.9880    4.1040 O   0  0  0  0  0  0  0  0  0  0  0  0
    3.0540   -4.4100    4.6390 C   0  0  0  0  0  0  0  0  0  0  0  0
    2.1020   -5.8300    5.3170 C   0  0  0  0  0  3  0  0  0  0  0  0
    2.4330   -7.4960    4.6630 C   0  0  0  0  0  3  0  0  0  0  0  0
    3.7600   -7.7550    3.4260 C   0  0  0  0  0  3  0  0  0  0  0  0
    4.6720   -6.3010    2.7680 C   0  0  0  0  0  0  0  0  0  0  0  0
    4.2570   -4.6300    3.3200 C   0  0  0  0  0  0  0  0  0  0  0  0
    5.1010   -3.4920    3.1290 N   0  0  0  0  0  0  0  0  0  0  0  0
    4.8630   -2.1230    6.1400 H   0  0  0  0  0  0  0  0  0  0  0  0
    5.8560   -3.6660    2.4660 H   0  0  0  0  0  0  0  0  0  0  0  0
    5.6240   -6.5010    1.8100 O   0  0  0  0  0  0  0  0  0  0  0  0
    5.7040   -5.6740    1.3080 H   0  0  0  0  0  0  0  0  0  0  0  0
    6.3700   -2.8580    7.3240 O   0  0  0  0  0  0  0  0  0  0  0  0
    5.5790   -3.4280    7.3330 H   0  0  0  0  0  0  0  0  0  0  0  0
    8.2940   -1.2800    2.6180 C   0  0  0  0  0  1  0  0  0  0  0  0
    9.4760   -1.1690    0.8150 C   0  0  0  0  0  3  0  0  0  0  0  0
   10.2390   -2.2700    0.0370 C   0  0  0  0  0  3  0  0  0  0  0  0
   10.9920   -2.1870   -1.1710 C   0  0  0  0  0  3  0  0  0  0  0  0
   11.1580   -0.9950   -1.8300 C   0  0  0  0  0  3  0  0  0  0  0  0
   10.5900    0.1250   -1.2780 C   0  0  0  0  0  3  0  0  0  0  0  0
    9.8330    0.0530   -0.0750 C   0  0  0  0  0  3  0  0  0  0  0  0
  1  2  2  0  0  0  0
  3  2  1  6  0  0  0
  3  4  1  0  0  0  0
  4  5  1  0  0  0  0
  4 28  1  6  0  0  0
  5  6  1  0  0  0  0
  7  6  2  0  0  0  0
  8  7  1  0  0  0  0
  9 10  1  0  0  0  0
  9  8  2  0  0  0  0
 10  5  2  0  0  0  0
 11  2  1  0  0  0  0
 11 10  1  0  0  0  0
 12 23  1  6  0  0  0
 12  3  1  0  0  0  0
 12 13  1  0  0  0  0
 13 24  1  0  0  0  0
 14 13  1  0  0  0  0
 14 15  2  0  0  0  0
 16 14  2  0  0  0  0
 17 14  1  0  0  0  0
 17 18  1  0  0  0  0
 19 18  2  0  0  0  0
 20 19  1  0  0  0  0
 21 22  1  0  0  0  0
 21 20  2  0  0  0  0
 22 17  2  0  0  0  0
 23 22  1  0  0  0  0
 25 23  1  0  0  0  0
 26 21  1  0  0  0  0
 27 26  1  0  0  0  0
 28 29  1  0  0  0  0
 30 11  1  0  0  0  0
 32 31  1  0  0  0  0
 33 32  2  0  0  0  0
 34 35  2  0  0  0  0
 34 33  1  0  0  0  0
 35 36  1  0  0  0  0
 36 31  2  0  0  0  0
M  END
>  <minimizedAffinity>
-6.15768337

$$$$

 OpenBabel09122218553D

 36 39  0  0  1  0  0  0  0  0999 V2000
    7.1640   -4.2330    7.8000 O   0  0  0  0  0  0  0  0  0  0  0  0
    6.9460   -3.0580    7.5300 C   0  0  0  0  0  0  0  0  0  0  0  0
    5.5240   -2.6080    7.2960 C   0  0  1  0  0  3  0  0  0  0  0  0
    5.3300   -1.3060    7.6090 C   0  0  1  0  0  3  0  0  0  0  0  0
    6.5100   -0.4620    7.9300 C   0  0  0  0  0  0  0  0  0  0  0  0
    6.4260    0.7920    8.5260 C   0  0  0  0  0  3  0  0  0  0  0  0
    7.5800    1.5640    8.6330 C   0  0  0  0  0  3  0  0  0  0  0  0
    8.7720    1.0610    8.1230 C   0  0  0  0  0  3  0  0  0  0  0  0
    8.8940   -0.1470    7.5280 N   0  0  0  0  0  0  0  0  0  0  0  0
    7.7700   -0.8810    7.4440 C   0  0  0  0  0  0  0  0  0  0  0  0
    7.7780   -2.1740    6.8380 N   0  0  0  0  0  0  0  0  0  0  0  0
    5.2430   -3.1980    5.9180 C   0  0  2  0  0  3  0  0  0  0  0  0
    4.2850   -2.5810    5.2290 N   0  0  0  0  0  0  0  0  0  0  0  0
    2.9640   -3.3450    4.6480 S   0  0  0  0  0  0  0  0  0  0  0  0
    1.8310   -2.4480    4.7180 O   0  0  0  0  0  0  0  0  0  0  0  0
    3.2580   -4.0500    3.4200 O   0  0  0  0  0  0  0  0  0  0  0  0
    2.6920   -4.5590    5.8990 C   0  0  0  0  0  0  0  0  0  0  0  0
    1.0960   -5.0340    6.6790 C   0  0  0  0  0  3  0  0  0  0  0  0
    1.1100   -6.2680    8.0160 C   0  0  0  0  0  3  0  0  0  0  0  0
    2.6980   -6.9420    8.6340 C   0  0  0  0  0  3  0  0  0  0  0  0
    4.2650   -6.4480    7.8090 C   0  0  0  0  0  0  0  0  0  0  0  0
    4.2430   -5.3210    6.3950 C   0  0  0  0  0  0  0  0  0  0  0  0
    5.3950   -4.6310    5.9050 N   0  0  0  0  0  0  0  0  0  0  0  0
    4.0790   -1.6190    5.4620 H   0  0  0  0  0  0  0  0  0  0  0  0
    6.2670   -4.9940    6.2880 H   0  0  0  0  0  0  0  0  0  0  0  0
    5.4380   -6.9950    8.2450 O   0  0  0  0  0  0  0  0  0  0  0  0
    6.0620   -6.9640    7.5020 H   0  0  0  0  0  0  0  0  0  0  0  0
    4.2000   -0.6040    7.2410 O   0  0  0  0  0  0  0  0  0  0  0  0
    3.4250   -1.1950    7.2760 H   0  0  0  0  0  0  0  0  0  0  0  0
    8.8630   -2.6400    5.6750 C   0  0  0  0  0  1  0  0  0  0  0  0
    9.0800   -2.2540    3.5620 C   0  0  0  0  0  3  0  0  0  0  0  0
    9.3310   -0.9310    2.7960 C   0  0  0  0  0  3  0  0  0  0  0  0
    9.5020   -0.6960    1.4010 C   0  0  0  0  0  3  0  0  0  0  0  0
    9.4310   -1.7190    0.4890 C   0  0  0  0  0  3  0  0  0  0  0  0
    9.1720   -2.9800    0.9620 C   0  0  0  0  0  3  0  0  0  0  0  0
    9.0030   -3.2270    2.3540 C   0  0  0  0  0  3  0  0  0  0  0  0
  2  1  2  0  0  0  0
  3  2  1  6  0  0  0
  3  4  1  0  0  0  0
  4 28  1  6  0  0  0
  4  5  1  0  0  0  0
  5  6  1  0  0  0  0
  6  7  2  0  0  0  0
  8  7  1  0  0  0  0
  9  8  2  0  0  0  0
 10  9  1  0  0  0  0
 10  5  2  0  0  0  0
 11 10  1  0  0  0  0
 11  2  1  0  0  0  0
 12 13  1  1  0  0  0
 12  3  1  0  0  0  0
 13 24  1  0  0  0  0
 14 15  2  0  0  0  0
 14 13  1  0  0  0  0
 14 17  1  0  0  0  0
 16 14  2  0  0  0  0
 17 22  2  0  0  0  0
 17 18  1  0  0  0  0
 18 19  2  0  0  0  0
 19 20  1  0  0  0  0
 21 26  1  0  0  0  0
 21 20  2  0  0  0  0
 22 21  1  0  0  0  0
 23 12  1  0  0  0  0
 23 25  1  0  0  0  0
 23 22  1  0  0  0  0
 27 26  1  0  0  0  0
 28 29  1  0  0  0  0
 30 11  1  0  0  0  0
 32 31  1  0  0  0  0
 33 32  2  0  0  0  0
 34 35  2  0  0  0  0
 34 33  1  0  0  0  0
 35 36  1  0  0  0  0
 36 31  2  0  0  0  0
M  END
>  <minimizedAffinity>
-5.80120897

$$$$

 OpenBabel09122218553D

 36 39  0  0  1  0  0  0  0  0999 V2000
    8.2530   -4.0460    3.2790 O   0  0  0  0  0  0  0  0  0  0  0  0
    8.2940   -3.3070    4.2550 C   0  0  0  0  0  0  0  0  0  0  0  0
    7.2310   -3.4330    5.3200 C   0  0  1  0  0  3  0  0  0  0  0  0
    7.6720   -3.0600    6.5440 C   0  0  1  0  0  3  0  0  0  0  0  0
    9.0050   -2.4130    6.6600 C   0  0  0  0  0  0  0  0  0  0  0  0
    9.6780   -2.2390    7.8650 C   0  0  0  0  0  3  0  0  0  0  0  0
   10.8440   -1.4770    7.8790 C   0  0  0  0  0  3  0  0  0  0  0  0
   11.2810   -0.8990    6.6920 C   0  0  0  0  0  3  0  0  0  0  0  0
   10.6500   -1.0350    5.5040 N   0  0  0  0  0  0  0  0  0  0  0  0
    9.5320   -1.7840    5.5090 C   0  0  0  0  0  0  0  0  0  0  0  0
    8.7830   -1.9990    4.3130 N   0  0  0  0  0  0  0  0  0  0  0  0
    6.0300   -2.8000    4.6250 C   0  0  2  0  0  3  0  0  0  0  0  0
    5.0260   -2.4680    5.4340 N   0  0  0  0  0  0  0  0  0  0  0  0
    3.4990   -3.0150    5.2400 S   0  0  0  0  0  0  0  0  0  0  0  0
    2.8990   -3.2110    6.5420 O   0  0  0  0  0  0  0  0  0  0  0  0
    2.7960   -2.2700    4.2200 O   0  0  0  0  0  0  0  0  0  0  0  0
    3.7940   -4.6330    4.6010 C   0  0  0  0  0  0  0  0  0  0  0  0
    2.9720   -6.2040    5.0900 C   0  0  0  0  0  3  0  0  0  0  0  0
    3.5290   -7.7570    4.3230 C   0  0  0  0  0  3  0  0  0  0  0  0
    4.9490   -7.7570    3.1640 C   0  0  0  0  0  3  0  0  0  0  0  0
    5.7250   -6.1590    2.6940 C   0  0  0  0  0  0  0  0  0  0  0  0
    5.0890   -4.6000    3.3540 C   0  0  0  0  0  0  0  0  0  0  0  0
    5.8070   -3.3630    3.3170 N   0  0  0  0  0  0  0  0  0  0  0  0
    5.2360   -2.3090    6.4100 H   0  0  0  0  0  0  0  0  0  0  0  0
    6.6150   -3.3930    2.6970 H   0  0  0  0  0  0  0  0  0  0  0  0
    6.7490   -6.1650    1.7910 O   0  0  0  0  0  0  0  0  0  0  0  0
    6.7630   -5.2930    1.3660 H   0  0  0  0  0  0  0  0  0  0  0  0
    6.8270   -2.8420    7.6130 O   0  0  0  0  0  0  0  0  0  0  0  0
    6.0860   -3.4730    7.5750 H   0  0  0  0  0  0  0  0  0  0  0  0
    8.7680   -0.9460    3.0330 C   0  0  0  0  0  1  0  0  0  0  0  0
    9.6100    1.0080    2.6660 C   0  0  0  0  0  3  0  0  0  0  0  0
    9.9860    1.7140    1.3390 C   0  0  0  0  0  3  0  0  0  0  0  0
   10.5140    3.0190    1.1110 C   0  0  0  0  0  3  0  0  0  0  0  0
   10.7990    3.8670    2.1510 C   0  0  0  0  0  3  0  0  0  0  0  0
   10.5760    3.4130    3.4260 C   0  0  0  0  0  3  0  0  0  0  0  0
   10.0440    2.1140    3.6660 C   0  0  0  0  0  3  0  0  0  0  0  0
  1  2  2  0  0  0  0
  2 11  1  0  0  0  0
  3  2  1  6  0  0  0
  3  4  1  0  0  0  0
  4  5  1  0  0  0  0
  4 28  1  6  0  0  0
  5  6  1  0  0  0  0
  6  7  2  0  0  0  0
  8  7  1  0  0  0  0
  9 10  1  0  0  0  0
  9  8  2  0  0  0  0
 10  5  2  0  0  0  0
 11 10  1  0  0  0  0
 12 23  1  6  0  0  0
 12  3  1  0  0  0  0
 12 13  1  0  0  0  0
 13 24  1  0  0  0  0
 14 13  1  0  0  0  0
 14 15  2  0  0  0  0
 16 14  2  0  0  0  0
 17 18  1  0  0  0  0
 17 14  1  0  0  0  0
 19 18  2  0  0  0  0
 20 19  1  0  0  0  0
 21 20  2  0  0  0  0
 21 22  1  0  0  0  0
 22 17  2  0  0  0  0
 23 22  1  0  0  0  0
 25 23  1  0  0  0  0
 26 21  1  0  0  0  0
 27 26  1  0  0  0  0
 29 28  1  0  0  0  0
 30 11  1  0  0  0  0
 31 36  1  0  0  0  0
 32 31  2  0  0  0  0
 33 32  1  0  0  0  0
 33 34  2  0  0  0  0
 34 35  1  0  0  0  0
 35 36  2  0  0  0  0
M  END
>  <minimizedAffinity>
-4.9383111

$$$$

 OpenBabel09122218553D

 36 39  0  0  1  0  0  0  0  0999 V2000
    6.3320   -4.6970    5.3770 O   0  0  0  0  0  0  0  0  0  0  0  0
    6.8520   -3.6610    5.7750 C   0  0  0  0  0  0  0  0  0  0  0  0
    6.2040   -2.8970    6.9040 C   0  0  1  0  0  3  0  0  0  0  0  0
    7.0950   -2.1890    7.6350 C   0  0  1  0  0  3  0  0  0  0  0  0
    8.4970   -2.0830    7.1510 C   0  0  0  0  0  0  0  0  0  0  0  0
    9.5530   -1.6290    7.9330 C   0  0  0  0  0  3  0  0  0  0  0  0
   10.7920   -1.4170    7.3320 C   0  0  0  0  0  3  0  0  0  0  0  0
   10.9220   -1.6470    5.9670 C   0  0  0  0  0  3  0  0  0  0  0  0
    9.9180   -2.0780    5.1700 N   0  0  0  0  0  0  0  0  0  0  0  0
    8.7320   -2.2880    5.7720 C   0  0  0  0  0  0  0  0  0  0  0  0
    7.6010   -2.7440    5.0320 N   0  0  0  0  0  0  0  0  0  0  0  0
    5.0040   -2.2730    6.1970 C   0  0  2  0  0  3  0  0  0  0  0  0
    4.3390   -1.3700    6.9130 N   0  0  0  0  0  0  0  0  0  0  0  0
    2.7410   -1.4780    7.2330 S   0  0  0  0  0  0  0  0  0  0  0  0
    2.4890   -0.9550    8.5590 O   0  0  0  0  0  0  0  0  0  0  0  0
    1.9460   -1.0310    6.1120 O   0  0  0  0  0  0  0  0  0  0  0  0
    2.5350   -3.2260    7.3610 C   0  0  0  0  0  0  0  0  0  0  0  0
    1.5900   -4.1580    8.6340 C   0  0  0  0  0  3  0  0  0  0  0  0
    1.6090   -5.9770    8.5790 C   0  0  0  0  0  3  0  0  0  0  0  0
    2.6360   -6.8520    7.3380 C   0  0  0  0  0  3  0  0  0  0  0  0
    3.5490   -5.8740    6.0770 C   0  0  0  0  0  0  0  0  0  0  0  0
    3.4270   -4.0710    6.0490 C   0  0  0  0  0  0  0  0  0  0  0  0
    4.3330   -3.2190    5.3410 N   0  0  0  0  0  0  0  0  0  0  0  0
    4.8320   -0.9040    7.6640 H   0  0  0  0  0  0  0  0  0  0  0  0
    4.9220   -3.7270    4.6830 H   0  0  0  0  0  0  0  0  0  0  0  0
    4.2700   -6.5380    5.1260 O   0  0  0  0  0  0  0  0  0  0  0  0
    4.3370   -5.9520    4.3560 H   0  0  0  0  0  0  0  0  0  0  0  0
    6.7220   -1.2200    8.5430 O   0  0  0  0  0  0  0  0  0  0  0  0
    5.8930   -1.4870    8.9810 H   0  0  0  0  0  0  0  0  0  0  0  0
    7.3870   -2.4700    3.4110 C   0  0  0  0  0  1  0  0  0  0  0  0
    8.6990   -2.3960    1.6990 C   0  0  0  0  0  3  0  0  0  0  0  0
    9.4180   -1.1990    1.0260 C   0  0  0  0  0  3  0  0  0  0  0  0
   10.3070   -1.1710   -0.0880 C   0  0  0  0  0  3  0  0  0  0  0  0
   10.6370   -2.3150   -0.7700 C   0  0  0  0  0  3  0  0  0  0  0  0
   10.0680   -3.4930   -0.3550 C   0  0  0  0  0  3  0  0  0  0  0  0
    9.1820   -3.5330    0.7580 C   0  0  0  0  0  3  0  0  0  0  0  0
  1  2  2  0  0  0  0
  3  2  1  6  0  0  0
  3  4  1  0  0  0  0
  4 28  1  6  0  0  0
  5  4  1  0  0  0  0
  5  6  1  0  0  0  0
  7  6  2  0  0  0  0
  8  7  1  0  0  0  0
  9 10  1  0  0  0  0
  9  8  2  0  0  0  0
 10  5  2  0  0  0  0
 11 10  1  0  0  0  0
 11  2  1  0  0  0  0
 12 23  1  1  0  0  0
 12  3  1  0  0  0  0
 12 13  1  0  0  0  0
 13 14  1  0  0  0  0
 13 24  1  0  0  0  0
 14 17  1  0  0  0  0
 14 15  2  0  0  0  0
 16 14  2  0  0  0  0
 17 18  1  0  0  0  0
 19 18  2  0  0  0  0
 20 19  1  0  0  0  0
 21 20  2  0  0  0  0
 22 21  1  0  0  0  0
 22 17  2  0  0  0  0
 23 22  1  0  0  0  0
 25 23  1  0  0  0  0
 26 21  1  0  0  0  0
 27 26  1  0  0  0  0
 28 29  1  0  0  0  0
 30 11  1  0  0  0  0
 32 31  1  0  0  0  0
 33 32  2  0  0  0  0
 34 35  2  0  0  0  0
 34 33  1  0  0  0  0
 35 36  1  0  0  0  0
 36 31  2  0  0  0  0
M  END
>  <minimizedAffinity>
-4.80612421

$$$$

 OpenBabel09122218553D

 36 39  0  0  1  0  0  0  0  0999 V2000
    6.3930   -4.7110    6.1440 O   0  0  0  0  0  0  0  0  0  0  0  0
    6.8230   -3.5920    6.4010 C   0  0  0  0  0  0  0  0  0  0  0  0
    6.0110   -2.6740    7.2820 C   0  0  1  0  0  3  0  0  0  0  0  0
    6.7770   -1.7960    7.9700 C   0  0  1  0  0  3  0  0  0  0  0  0
    8.2250   -1.7010    7.6460 C   0  0  0  0  0  0  0  0  0  0  0  0
    9.1560   -1.0540    8.4510 C   0  0  0  0  0  3  0  0  0  0  0  0
   10.4540   -0.8840    7.9730 C   0  0  0  0  0  3  0  0  0  0  0  0
   10.7660   -1.3510    6.7010 C   0  0  0  0  0  3  0  0  0  0  0  0
    9.8870   -1.9740    5.8840 N   0  0  0  0  0  0  0  0  0  0  0  0
    8.6420   -2.1380    6.3680 C   0  0  0  0  0  0  0  0  0  0  0  0
    7.6310   -2.7840    5.5960 N   0  0  0  0  0  0  0  0  0  0  0  0
    4.8920   -2.2570    6.3320 C   0  0  2  0  0  3  0  0  0  0  0  0
    4.0480   -1.3530    6.8240 N   0  0  0  0  0  0  0  0  0  0  0  0
    2.4340   -1.5860    6.9140 S   0  0  0  0  0  0  0  0  0  0  0  0
    1.9310   -0.9490    8.1120 O   0  0  0  0  0  0  0  0  0  0  0  0
    1.7930   -1.3480    5.6400 O   0  0  0  0  0  0  0  0  0  0  0  0
    2.3560   -3.3210    7.2270 C   0  0  0  0  0  0  0  0  0  0  0  0
    1.3010   -4.1980    8.4510 C   0  0  0  0  0  3  0  0  0  0  0  0
    1.4800   -6.0000    8.6270 C   0  0  0  0  0  3  0  0  0  0  0  0
    2.7610   -6.8990    7.6710 C   0  0  0  0  0  3  0  0  0  0  0  0
    3.7790   -5.9780    6.4480 C   0  0  0  0  0  0  0  0  0  0  0  0
    3.5140   -4.2110    6.1770 C   0  0  0  0  0  0  0  0  0  0  0  0
    4.4470   -3.3550    5.5110 N   0  0  0  0  0  0  0  0  0  0  0  0
    4.3740   -0.7590    7.5750 H   0  0  0  0  0  0  0  0  0  0  0  0
    5.1730   -3.8700    5.0160 H   0  0  0  0  0  0  0  0  0  0  0  0
    4.6950   -6.6660    5.7050 O   0  0  0  0  0  0  0  0  0  0  0  0
    4.8350   -6.1650    4.8860 H   0  0  0  0  0  0  0  0  0  0  0  0
    6.2580   -0.7020    8.6300 O   0  0  0  0  0  0  0  0  0  0  0  0
    5.3890   -0.9310    9.0070 H   0  0  0  0  0  0  0  0  0  0  0  0
    7.6170   -2.8200    3.9390 C   0  0  0  0  0  1  0  0  0  0  0  0
    6.8630   -4.1980    2.4580 C   0  0  0  0  0  3  0  0  0  0  0  0
    5.4880   -4.9000    2.3370 C   0  0  0  0  0  3  0  0  0  0  0  0
    4.9940   -5.7860    1.3360 C   0  0  0  0  0  3  0  0  0  0  0  0
    5.7720   -6.1710    0.2730 C   0  0  0  0  0  3  0  0  0  0  0  0
    7.0550   -5.6880    0.2130 C   0  0  0  0  0  3  0  0  0  0  0  0
    7.5570   -4.8000    1.2050 C   0  0  0  0  0  3  0  0  0  0  0  0
  1  2  2  0  0  0  0
  3  2  1  6  0  0  0
  3  4  1  0  0  0  0
  4 28  1  6  0  0  0
  5  4  1  0  0  0  0
  5  6  1  0  0  0  0
  7  6  2  0  0  0  0
  8  7  1  0  0  0  0
  9 10  1  0  0  0  0
  9  8  2  0  0  0  0
 10  5  2  0  0  0  0
 11 10  1  0  0  0  0
 11  2  1  0  0  0  0
 12 23  1  1  0  0  0
 12 13  1  0  0  0  0
 12  3  1  0  0  0  0
 13 14  1  0  0  0  0
 13 24  1  0  0  0  0
 14 17  1  0  0  0  0
 14 15  2  0  0  0  0
 16 14  2  0  0  0  0
 17 18  1  0  0  0  0
 18 19  2  0  0  0  0
 20 19  1  0  0  0  0
 21 20  2  0  0  0  0
 22 21  1  0  0  0  0
 22 17  2  0  0  0  0
 23 22  1  0  0  0  0
 25 23  1  0  0  0  0
 26 21  1  0  0  0  0
 27 26  1  0  0  0  0
 28 29  1  0  0  0  0
 30 11  1  0  0  0  0
 32 31  1  0  0  0  0
 33 32  2  0  0  0  0
 34 33  1  0  0  0  0
 35 34  2  0  0  0  0
 35 36  1  0  0  0  0
 36 31  2  0  0  0  0
M  END
>  <minimizedAffinity>
-3.58605385

$$$$
