
 OpenBabel09122222393D

 36 39  0  0  1  0  0  0  0  0999 V2000
    7.5400   -4.3180    2.9920 O   0  0  0  0  0  0  0  0  0  0  0  0
    7.6740   -3.5520    3.9390 C   0  0  0  0  0  0  0  0  0  0  0  0
    6.6440   -3.5560    5.0420 C   0  0  1  0  0  3  0  0  0  0  0  0
    7.1560   -3.1800    6.2360 C   0  0  1  0  0  3  0  0  0  0  0  0
    8.5400   -2.6410    6.2850 C   0  0  0  0  0  0  0  0  0  0  0  0
    9.2680   -2.4830    7.4610 C   0  0  0  0  0  3  0  0  0  0  0  0
   10.4910   -1.8190    7.4090 C   0  0  0  0  0  3  0  0  0  0  0  0
   10.9310   -1.3190    6.1880 C   0  0  0  0  0  3  0  0  0  0  0  0
   10.2490   -1.4410    5.0270 N   0  0  0  0  0  0  0  0  0  0  0  0
    9.0750   -2.0960    5.0960 C   0  0  0  0  0  0  0  0  0  0  0  0
    8.2700   -2.2880    3.9340 N   0  0  0  0  0  0  0  0  0  0  0  0
    5.4730   -2.8500    4.3640 C   0  0  2  0  0  3  0  0  0  0  0  0
    4.5700   -2.3380    5.1970 N   0  0  0  0  0  0  0  0  0  0  0  0
    2.9820   -2.7210    5.1440 S   0  0  0  0  0  0  0  0  0  0  0  0
    2.4560   -2.7370    6.4920 O   0  0  0  0  0  0  0  0  0  0  0  0
    2.2960   -1.9880    4.1040 O   0  0  0  0  0  0  0  0  0  0  0  0
    3.0540   -4.4100    4.6390 C   0  0  0  0  0  0  0  0  0  0  0  0
    2.1020   -5.8300    5.3170 C   0  0  0  0  0  3  0  0  0  0  0  0
    2.4330   -7.4960    4.6630 C   0  0  0  0  0  3  0  0  0  0  0  0
    3.7600   -7.7550    3.4260 C   0  0  0  0  0  3  0  0  0  0  0  0
    4.6720   -6.3010    2.7680 C   0  0  0  0  0  0  0  0  0  0  0  0
    4.2570   -4.6300    3.3200 C   0  0  0  0  0  0  0  0  0  0  0  0
    5.1010   -3.4920    3.1290 N   0  0  0  0  0  0  0  0  0  0  0  0
    4.8630   -2.1230    6.1400 H   0  0  0  0  0  0  0  0  0  0  0  0
    5.8560   -3.6660    2.4660 H   0  0  0  0  0  0  0  0  0  0  0  0
    5.6240   -6.5010    1.8100 O   0  0  0  0  0  0  0  0  0  0  0  0
    5.7040   -5.6740    1.3080 H   0  0  0  0  0  0  0  0  0  0  0  0
    6.3700   -2.8580    7.3240 O   0  0  0  0  0  0  0  0  0  0  0  0
    5.5790   -3.4280    7.3330 H   0  0  0  0  0  0  0  0  0  0  0  0
    8.2940   -1.2800    2.6180 C   0  0  0  0  0  1  0  0  0  0  0  0
    9.4760   -1.1690    0.8150 C   0  0  0  0  0  3  0  0  0  0  0  0
   10.2390   -2.2700    0.0370 C   0  0  0  0  0  3  0  0  0  0  0  0
   10.9920   -2.1870   -1.1710 C   0  0  0  0  0  3  0  0  0  0  0  0
   11.1580   -0.9950   -1.8300 C   0  0  0  0  0  3  0  0  0  0  0  0
   10.5900    0.1250   -1.2780 C   0  0  0  0  0  3  0  0  0  0  0  0
    9.8330    0.0530   -0.0750 C   0  0  0  0  0  3  0  0  0  0  0  0
  1  2  2  0  0  0  0
  3  2  1  6  0  0  0
  3  4  1  0  0  0  0
  4  5  1  0  0  0  0
  4 28  1  6  0  0  0
  5  6  1  0  0  0  0
  7  6  2  0  0  0  0
  8  7  1  0  0  0  0
  9 10  1  0  0  0  0
  9  8  2  0  0  0  0
 10  5  2  0  0  0  0
 11  2  1  0  0  0  0
 11 10  1  0  0  0  0
 12 23  1  6  0  0  0
 12  3  1  0  0  0  0
 12 13  1  0  0  0  0
 13 24  1  0  0  0  0
 14 13  1  0  0  0  0
 14 15  2  0  0  0  0
 16 14  2  0  0  0  0
 17 14  1  0  0  0  0
 17 18  1  0  0  0  0
 19 18  2  0  0  0  0
 20 19  1  0  0  0  0
 21 22  1  0  0  0  0
 21 20  2  0  0  0  0
 22 17  2  0  0  0  0
 23 22  1  0  0  0  0
 25 23  1  0  0  0  0
 26 21  1  0  0  0  0
 27 26  1  0  0  0  0
 28 29  1  0  0  0  0
 30 11  1  0  0  0  0
 32 31  1  0  0  0  0
 33 32  2  0  0  0  0
 34 35  2  0  0  0  0
 34 33  1  0  0  0  0
 35 36  1  0  0  0  0
 36 31  2  0  0  0  0
M  END
>  <minimizedAffinity>
-6.15768337

$$$$
