
 OpenBabel09122222393D

 36 39  0  0  1  0  0  0  0  0999 V2000
    8.2530   -4.0460    3.2790 O   0  0  0  0  0  0  0  0  0  0  0  0
    8.2940   -3.3070    4.2550 C   0  0  0  0  0  0  0  0  0  0  0  0
    7.2310   -3.4330    5.3200 C   0  0  1  0  0  3  0  0  0  0  0  0
    7.6720   -3.0600    6.5440 C   0  0  1  0  0  3  0  0  0  0  0  0
    9.0050   -2.4130    6.6600 C   0  0  0  0  0  0  0  0  0  0  0  0
    9.6780   -2.2390    7.8650 C   0  0  0  0  0  3  0  0  0  0  0  0
   10.8440   -1.4770    7.8790 C   0  0  0  0  0  3  0  0  0  0  0  0
   11.2810   -0.8990    6.6920 C   0  0  0  0  0  3  0  0  0  0  0  0
   10.6500   -1.0350    5.5040 N   0  0  0  0  0  0  0  0  0  0  0  0
    9.5320   -1.7840    5.5090 C   0  0  0  0  0  0  0  0  0  0  0  0
    8.7830   -1.9990    4.3130 N   0  0  0  0  0  0  0  0  0  0  0  0
    6.0300   -2.8000    4.6250 C   0  0  2  0  0  3  0  0  0  0  0  0
    5.0260   -2.4680    5.4340 N   0  0  0  0  0  0  0  0  0  0  0  0
    3.4990   -3.0150    5.2400 S   0  0  0  0  0  0  0  0  0  0  0  0
    2.8990   -3.2110    6.5420 O   0  0  0  0  0  0  0  0  0  0  0  0
    2.7960   -2.2700    4.2200 O   0  0  0  0  0  0  0  0  0  0  0  0
    3.7940   -4.6330    4.6010 C   0  0  0  0  0  0  0  0  0  0  0  0
    2.9720   -6.2040    5.0900 C   0  0  0  0  0  3  0  0  0  0  0  0
    3.5290   -7.7570    4.3230 C   0  0  0  0  0  3  0  0  0  0  0  0
    4.9490   -7.7570    3.1640 C   0  0  0  0  0  3  0  0  0  0  0  0
    5.7250   -6.1590    2.6940 C   0  0  0  0  0  0  0  0  0  0  0  0
    5.0890   -4.6000    3.3540 C   0  0  0  0  0  0  0  0  0  0  0  0
    5.8070   -3.3630    3.3170 N   0  0  0  0  0  0  0  0  0  0  0  0
    5.2360   -2.3090    6.4100 H   0  0  0  0  0  0  0  0  0  0  0  0
    6.6150   -3.3930    2.6970 H   0  0  0  0  0  0  0  0  0  0  0  0
    6.7490   -6.1650    1.7910 O   0  0  0  0  0  0  0  0  0  0  0  0
    6.7630   -5.2930    1.3660 H   0  0  0  0  0  0  0  0  0  0  0  0
    6.8270   -2.8420    7.6130 O   0  0  0  0  0  0  0  0  0  0  0  0
    6.0860   -3.4730    7.5750 H   0  0  0  0  0  0  0  0  0  0  0  0
    8.7680   -0.9460    3.0330 C   0  0  0  0  0  1  0  0  0  0  0  0
    9.6100    1.0080    2.6660 C   0  0  0  0  0  3  0  0  0  0  0  0
    9.9860    1.7140    1.3390 C   0  0  0  0  0  3  0  0  0  0  0  0
   10.5140    3.0190    1.1110 C   0  0  0  0  0  3  0  0  0  0  0  0
   10.7990    3.8670    2.1510 C   0  0  0  0  0  3  0  0  0  0  0  0
   10.5760    3.4130    3.4260 C   0  0  0  0  0  3  0  0  0  0  0  0
   10.0440    2.1140    3.6660 C   0  0  0  0  0  3  0  0  0  0  0  0
  1  2  2  0  0  0  0
  2 11  1  0  0  0  0
  3  2  1  6  0  0  0
  3  4  1  0  0  0  0
  4  5  1  0  0  0  0
  4 28  1  6  0  0  0
  5  6  1  0  0  0  0
  6  7  2  0  0  0  0
  8  7  1  0  0  0  0
  9 10  1  0  0  0  0
  9  8  2  0  0  0  0
 10  5  2  0  0  0  0
 11 10  1  0  0  0  0
 12 23  1  6  0  0  0
 12  3  1  0  0  0  0
 12 13  1  0  0  0  0
 13 24  1  0  0  0  0
 14 13  1  0  0  0  0
 14 15  2  0  0  0  0
 16 14  2  0  0  0  0
 17 18  1  0  0  0  0
 17 14  1  0  0  0  0
 19 18  2  0  0  0  0
 20 19  1  0  0  0  0
 21 20  2  0  0  0  0
 21 22  1  0  0  0  0
 22 17  2  0  0  0  0
 23 22  1  0  0  0  0
 25 23  1  0  0  0  0
 26 21  1  0  0  0  0
 27 26  1  0  0  0  0
 29 28  1  0  0  0  0
 30 11  1  0  0  0  0
 31 36  1  0  0  0  0
 32 31  2  0  0  0  0
 33 32  1  0  0  0  0
 33 34  2  0  0  0  0
 34 35  1  0  0  0  0
 35 36  2  0  0  0  0
M  END
>  <minimizedAffinity>
-4.9383111

$$$$
