
 OpenBabel09122222393D

 36 39  0  0  1  0  0  0  0  0999 V2000
    7.1640   -4.2330    7.8000 O   0  0  0  0  0  0  0  0  0  0  0  0
    6.9460   -3.0580    7.5300 C   0  0  0  0  0  0  0  0  0  0  0  0
    5.5240   -2.6080    7.2960 C   0  0  1  0  0  3  0  0  0  0  0  0
    5.3300   -1.3060    7.6090 C   0  0  1  0  0  3  0  0  0  0  0  0
    6.5100   -0.4620    7.9300 C   0  0  0  0  0  0  0  0  0  0  0  0
    6.4260    0.7920    8.5260 C   0  0  0  0  0  3  0  0  0  0  0  0
    7.5800    1.5640    8.6330 C   0  0  0  0  0  3  0  0  0  0  0  0
    8.7720    1.0610    8.1230 C   0  0  0  0  0  3  0  0  0  0  0  0
    8.8940   -0.1470    7.5280 N   0  0  0  0  0  0  0  0  0  0  0  0
    7.7700   -0.8810    7.4440 C   0  0  0  0  0  0  0  0  0  0  0  0
    7.7780   -2.1740    6.8380 N   0  0  0  0  0  0  0  0  0  0  0  0
    5.2430   -3.1980    5.9180 C   0  0  2  0  0  3  0  0  0  0  0  0
    4.2850   -2.5810    5.2290 N   0  0  0  0  0  0  0  0  0  0  0  0
    2.9640   -3.3450    4.6480 S   0  0  0  0  0  0  0  0  0  0  0  0
    1.8310   -2.4480    4.7180 O   0  0  0  0  0  0  0  0  0  0  0  0
    3.2580   -4.0500    3.4200 O   0  0  0  0  0  0  0  0  0  0  0  0
    2.6920   -4.5590    5.8990 C   0  0  0  0  0  0  0  0  0  0  0  0
    1.0960   -5.0340    6.6790 C   0  0  0  0  0  3  0  0  0  0  0  0
    1.1100   -6.2680    8.0160 C   0  0  0  0  0  3  0  0  0  0  0  0
    2.6980   -6.9420    8.6340 C   0  0  0  0  0  3  0  0  0  0  0  0
    4.2650   -6.4480    7.8090 C   0  0  0  0  0  0  0  0  0  0  0  0
    4.2430   -5.3210    6.3950 C   0  0  0  0  0  0  0  0  0  0  0  0
    5.3950   -4.6310    5.9050 N   0  0  0  0  0  0  0  0  0  0  0  0
    4.0790   -1.6190    5.4620 H   0  0  0  0  0  0  0  0  0  0  0  0
    6.2670   -4.9940    6.2880 H   0  0  0  0  0  0  0  0  0  0  0  0
    5.4380   -6.9950    8.2450 O   0  0  0  0  0  0  0  0  0  0  0  0
    6.0620   -6.9640    7.5020 H   0  0  0  0  0  0  0  0  0  0  0  0
    4.2000   -0.6040    7.2410 O   0  0  0  0  0  0  0  0  0  0  0  0
    3.4250   -1.1950    7.2760 H   0  0  0  0  0  0  0  0  0  0  0  0
    8.8630   -2.6400    5.6750 C   0  0  0  0  0  1  0  0  0  0  0  0
    9.0800   -2.2540    3.5620 C   0  0  0  0  0  3  0  0  0  0  0  0
    9.3310   -0.9310    2.7960 C   0  0  0  0  0  3  0  0  0  0  0  0
    9.5020   -0.6960    1.4010 C   0  0  0  0  0  3  0  0  0  0  0  0
    9.4310   -1.7190    0.4890 C   0  0  0  0  0  3  0  0  0  0  0  0
    9.1720   -2.9800    0.9620 C   0  0  0  0  0  3  0  0  0  0  0  0
    9.0030   -3.2270    2.3540 C   0  0  0  0  0  3  0  0  0  0  0  0
  2  1  2  0  0  0  0
  3  2  1  6  0  0  0
  3  4  1  0  0  0  0
  4 28  1  6  0  0  0
  4  5  1  0  0  0  0
  5  6  1  0  0  0  0
  6  7  2  0  0  0  0
  8  7  1  0  0  0  0
  9  8  2  0  0  0  0
 10  9  1  0  0  0  0
 10  5  2  0  0  0  0
 11 10  1  0  0  0  0
 11  2  1  0  0  0  0
 12 13  1  1  0  0  0
 12  3  1  0  0  0  0
 13 24  1  0  0  0  0
 14 15  2  0  0  0  0
 14 13  1  0  0  0  0
 14 17  1  0  0  0  0
 16 14  2  0  0  0  0
 17 22  2  0  0  0  0
 17 18  1  0  0  0  0
 18 19  2  0  0  0  0
 19 20  1  0  0  0  0
 21 26  1  0  0  0  0
 21 20  2  0  0  0  0
 22 21  1  0  0  0  0
 23 12  1  0  0  0  0
 23 25  1  0  0  0  0
 23 22  1  0  0  0  0
 27 26  1  0  0  0  0
 28 29  1  0  0  0  0
 30 11  1  0  0  0  0
 32 31  1  0  0  0  0
 33 32  2  0  0  0  0
 34 35  2  0  0  0  0
 34 33  1  0  0  0  0
 35 36  1  0  0  0  0
 36 31  2  0  0  0  0
M  END
>  <minimizedAffinity>
-5.80120897

$$$$
