
 OpenBabel09122222393D

 36 39  0  0  1  0  0  0  0  0999 V2000
    6.3320   -4.6970    5.3770 O   0  0  0  0  0  0  0  0  0  0  0  0
    6.8520   -3.6610    5.7750 C   0  0  0  0  0  0  0  0  0  0  0  0
    6.2040   -2.8970    6.9040 C   0  0  1  0  0  3  0  0  0  0  0  0
    7.0950   -2.1890    7.6350 C   0  0  1  0  0  3  0  0  0  0  0  0
    8.4970   -2.0830    7.1510 C   0  0  0  0  0  0  0  0  0  0  0  0
    9.5530   -1.6290    7.9330 C   0  0  0  0  0  3  0  0  0  0  0  0
   10.7920   -1.4170    7.3320 C   0  0  0  0  0  3  0  0  0  0  0  0
   10.9220   -1.6470    5.9670 C   0  0  0  0  0  3  0  0  0  0  0  0
    9.9180   -2.0780    5.1700 N   0  0  0  0  0  0  0  0  0  0  0  0
    8.7320   -2.2880    5.7720 C   0  0  0  0  0  0  0  0  0  0  0  0
    7.6010   -2.7440    5.0320 N   0  0  0  0  0  0  0  0  0  0  0  0
    5.0040   -2.2730    6.1970 C   0  0  2  0  0  3  0  0  0  0  0  0
    4.3390   -1.3700    6.9130 N   0  0  0  0  0  0  0  0  0  0  0  0
    2.7410   -1.4780    7.2330 S   0  0  0  0  0  0  0  0  0  0  0  0
    2.4890   -0.9550    8.5590 O   0  0  0  0  0  0  0  0  0  0  0  0
    1.9460   -1.0310    6.1120 O   0  0  0  0  0  0  0  0  0  0  0  0
    2.5350   -3.2260    7.3610 C   0  0  0  0  0  0  0  0  0  0  0  0
    1.5900   -4.1580    8.6340 C   0  0  0  0  0  3  0  0  0  0  0  0
    1.6090   -5.9770    8.5790 C   0  0  0  0  0  3  0  0  0  0  0  0
    2.6360   -6.8520    7.3380 C   0  0  0  0  0  3  0  0  0  0  0  0
    3.5490   -5.8740    6.0770 C   0  0  0  0  0  0  0  0  0  0  0  0
    3.4270   -4.0710    6.0490 C   0  0  0  0  0  0  0  0  0  0  0  0
    4.3330   -3.2190    5.3410 N   0  0  0  0  0  0  0  0  0  0  0  0
    4.8320   -0.9040    7.6640 H   0  0  0  0  0  0  0  0  0  0  0  0
    4.9220   -3.7270    4.6830 H   0  0  0  0  0  0  0  0  0  0  0  0
    4.2700   -6.5380    5.1260 O   0  0  0  0  0  0  0  0  0  0  0  0
    4.3370   -5.9520    4.3560 H   0  0  0  0  0  0  0  0  0  0  0  0
    6.7220   -1.2200    8.5430 O   0  0  0  0  0  0  0  0  0  0  0  0
    5.8930   -1.4870    8.9810 H   0  0  0  0  0  0  0  0  0  0  0  0
    7.3870   -2.4700    3.4110 C   0  0  0  0  0  1  0  0  0  0  0  0
    8.6990   -2.3960    1.6990 C   0  0  0  0  0  3  0  0  0  0  0  0
    9.4180   -1.1990    1.0260 C   0  0  0  0  0  3  0  0  0  0  0  0
   10.3070   -1.1710   -0.0880 C   0  0  0  0  0  3  0  0  0  0  0  0
   10.6370   -2.3150   -0.7700 C   0  0  0  0  0  3  0  0  0  0  0  0
   10.0680   -3.4930   -0.3550 C   0  0  0  0  0  3  0  0  0  0  0  0
    9.1820   -3.5330    0.7580 C   0  0  0  0  0  3  0  0  0  0  0  0
  1  2  2  0  0  0  0
  3  2  1  6  0  0  0
  3  4  1  0  0  0  0
  4 28  1  6  0  0  0
  5  4  1  0  0  0  0
  5  6  1  0  0  0  0
  7  6  2  0  0  0  0
  8  7  1  0  0  0  0
  9 10  1  0  0  0  0
  9  8  2  0  0  0  0
 10  5  2  0  0  0  0
 11 10  1  0  0  0  0
 11  2  1  0  0  0  0
 12 23  1  1  0  0  0
 12  3  1  0  0  0  0
 12 13  1  0  0  0  0
 13 14  1  0  0  0  0
 13 24  1  0  0  0  0
 14 17  1  0  0  0  0
 14 15  2  0  0  0  0
 16 14  2  0  0  0  0
 17 18  1  0  0  0  0
 19 18  2  0  0  0  0
 20 19  1  0  0  0  0
 21 20  2  0  0  0  0
 22 21  1  0  0  0  0
 22 17  2  0  0  0  0
 23 22  1  0  0  0  0
 25 23  1  0  0  0  0
 26 21  1  0  0  0  0
 27 26  1  0  0  0  0
 28 29  1  0  0  0  0
 30 11  1  0  0  0  0
 32 31  1  0  0  0  0
 33 32  2  0  0  0  0
 34 35  2  0  0  0  0
 34 33  1  0  0  0  0
 35 36  1  0  0  0  0
 36 31  2  0  0  0  0
M  END
>  <minimizedAffinity>
-4.80612421

$$$$
