
 OpenBabel09092210413D

 27 29  0  0  1  0  0  0  0  0999 V2000
    1.6510   -2.4450    2.0060 N   0  0  0  0  0  0  0  0  0  0  0  0
    1.7330   -2.4300    3.3820 C   0  0  2  0  0  3  0  0  0  0  0  0
    0.6820   -2.6460    4.1770 N   0  0  0  0  0  0  0  0  0  0  0  0
    2.9350   -2.0870    3.7690 N   0  0  0  0  0  2  0  0  0  0  0  0
    3.7260   -2.1990    2.6590 C   0  0  0  0  0  0  0  0  0  0  0  0
    5.1250   -2.0830    2.5170 C   0  0  0  0  0  3  0  0  0  0  0  0
    5.7410   -2.3150    1.2730 C   0  0  0  0  0  3  0  0  0  0  0  0
    4.9020   -2.6670    0.2240 C   0  0  0  0  0  0  0  0  0  0  0  0
    3.5060   -2.7260    0.3220 C   0  0  0  0  0  0  0  0  0  0  0  0
    2.9440   -2.4790    1.5420 C   0  0  0  0  0  0  0  0  0  0  0  0
    2.9180   -3.1770   -0.9460 C   0  0  0  0  0  2  0  0  0  0  0  0
    4.2070   -3.7050   -1.6340 C   0  0  2  0  0  3  0  0  0  0  0  0
    5.3620   -3.0330   -1.0280 O   0  0  0  0  0  0  0  0  0  0  0  0
   -0.1350   -3.1860    3.9090 H   0  0  0  0  0  0  0  0  0  0  0  0
    0.8530   -2.6550    5.1830 H   0  0  0  0  0  0  0  0  0  0  0  0
    0.4570   -2.2100    1.2260 C   0  0  0  0  0  2  0  0  0  0  0  0
    0.3130   -0.8420    0.5260 C   0  0  0  0  0  2  0  0  0  0  0  0
    0.4560    0.4630    1.3230 C   0  0  0  0  0  2  0  0  0  0  0  0
    0.8960    2.8330    0.5910 C   0  0  0  0  0  1  0  0  0  0  0  0
    1.4460    1.4490    0.7550 N   0  0  0  0  0  4  0  0  0  0  0  0
    2.7090    1.4650    1.5920 C   0  0  0  0  0  1  0  0  0  0  0  0
    1.7710    1.1040   -0.1560 H   0  0  0  0  0  0  0  0  0  0  0  0
    4.2540   -3.4600   -3.1450 C   0  0  0  0  0  2  0  0  0  0  0  0
    4.5100   -4.7670   -3.8890 N   0  0  0  0  0  4  0  0  0  0  0  0
    5.7540   -5.4910   -3.4460 C   0  0  0  0  0  1  0  0  0  0  0  0
    3.3150   -5.6820   -3.8660 C   0  0  0  0  0  1  0  0  0  0  0  0
    4.6590   -4.5030   -4.8780 H   0  0  0  0  0  0  0  0  0  0  0  0
  1  2  1  0  0  0  0
  2  4  1  0  0  0  0
  2  3  1  1  0  0  0
  3 15  1  0  0  0  0
  5  4  1  0  0  0  0
  6  5  1  0  0  0  0
  7  6  2  0  0  0  0
  8  9  2  0  0  0  0
  8  7  1  0  0  0  0
  9 10  1  0  0  0  0
 10  1  1  0  0  0  0
 10  5  2  0  0  0  0
 11  9  1  0  0  0  0
 12 23  1  6  0  0  0
 12 13  1  0  0  0  0
 12 11  1  0  0  0  0
 13  8  1  0  0  0  0
 14  3  1  0  0  0  0
 16  1  1  0  0  0  0
 17 16  1  0  0  0  0
 17 18  1  0  0  0  0
 19 20  1  0  0  0  0
 20 18  1  0  0  0  0
 20 21  1  0  0  0  0
 22 20  1  0  0  0  0
 24 26  1  0  0  0  0
 24 25  1  0  0  0  0
 24 23  1  0  0  0  0
 27 24  1  0  0  0  0
M  END
>  <minimizedAffinity>
-2.17034292

$$$$
