
 OpenBabel09092210413D

 27 29  0  0  1  0  0  0  0  0999 V2000
    2.9480   -0.7720    2.3780 N   0  0  0  0  0  0  0  0  0  0  0  0
    3.9990   -0.4000    3.1890 C   0  0  2  0  0  3  0  0  0  0  0  0
    3.8320    0.2330    4.3540 N   0  0  0  0  0  0  0  0  0  0  0  0
    5.1430   -0.6680    2.6150 N   0  0  0  0  0  2  0  0  0  0  0  0
    4.8470   -1.5110    1.5790 C   0  0  0  0  0  0  0  0  0  0  0  0
    5.6980   -2.2200    0.7050 C   0  0  0  0  0  3  0  0  0  0  0  0
    5.1660   -3.1020   -0.2550 C   0  0  0  0  0  3  0  0  0  0  0  0
    3.7840   -3.2320   -0.2750 C   0  0  0  0  0  0  0  0  0  0  0  0
    2.9140   -2.4930    0.5370 C   0  0  0  0  0  0  0  0  0  0  0  0
    3.4670   -1.6360    1.4440 C   0  0  0  0  0  0  0  0  0  0  0  0
    1.5220   -2.9020    0.3080 C   0  0  0  0  0  2  0  0  0  0  0  0
    1.7840   -4.2180   -0.4740 C   0  0  2  0  0  3  0  0  0  0  0  0
    3.1170   -4.1370   -1.0810 O   0  0  0  0  0  0  0  0  0  0  0  0
    2.9920    0.1720    4.9220 H   0  0  0  0  0  0  0  0  0  0  0  0
    4.6700    0.4290    4.9020 H   0  0  0  0  0  0  0  0  0  0  0  0
    1.6340   -0.1680    2.3640 C   0  0  0  0  0  2  0  0  0  0  0  0
    1.3000    0.7980    1.2090 C   0  0  0  0  0  2  0  0  0  0  0  0
    1.5160    2.3100    1.3660 C   0  0  0  0  0  2  0  0  0  0  0  0
    3.2420    3.7000    0.1670 C   0  0  0  0  0  1  0  0  0  0  0  0
    2.9550    2.7570    1.2960 N   0  0  0  0  0  4  0  0  0  0  0  0
    3.3830    3.3550    2.6220 C   0  0  0  0  0  1  0  0  0  0  0  0
    3.5550    1.9290    1.2060 H   0  0  0  0  0  0  0  0  0  0  0  0
    0.7710   -4.4950   -1.5890 C   0  0  0  0  0  2  0  0  0  0  0  0
    1.4870   -4.9310   -2.8640 N   0  0  0  0  0  4  0  0  0  0  0  0
    1.3410   -6.3960   -3.1770 C   0  0  0  0  0  1  0  0  0  0  0  0
    1.1110   -4.0840   -4.0490 C   0  0  0  0  0  1  0  0  0  0  0  0
    2.4940   -4.7650   -2.6910 H   0  0  0  0  0  0  0  0  0  0  0  0
  1  2  1  0  0  0  0
  2  3  1  6  0  0  0
  3 15  1  0  0  0  0
  3 14  1  0  0  0  0
  4  2  1  0  0  0  0
  5  4  1  0  0  0  0
  6  5  2  0  0  0  0
  7  6  1  0  0  0  0
  8  7  2  0  0  0  0
  8  9  1  0  0  0  0
  9 10  2  0  0  0  0
 10  5  1  0  0  0  0
 10  1  1  0  0  0  0
 11  9  1  0  0  0  0
 12 23  1  6  0  0  0
 12 11  1  0  0  0  0
 13 12  1  0  0  0  0
 13  8  1  0  0  0  0
 16  1  1  0  0  0  0
 17 18  1  0  0  0  0
 17 16  1  0  0  0  0
 19 20  1  0  0  0  0
 20 18  1  0  0  0  0
 20 21  1  0  0  0  0
 22 20  1  0  0  0  0
 24 27  1  0  0  0  0
 24 23  1  0  0  0  0
 25 24  1  0  0  0  0
 26 24  1  0  0  0  0
M  END
>  <minimizedAffinity>
-2.19308877

$$$$
