
 OpenBabel09092210413D

 27 29  0  0  1  0  0  0  0  0999 V2000
    2.2980   -3.6750   -0.6350 N   0  0  0  0  0  0  0  0  0  0  0  0
    2.9250   -4.4790   -1.5620 C   0  0  2  0  0  3  0  0  0  0  0  0
    2.2750   -5.0880   -2.5570 N   0  0  0  0  0  0  0  0  0  0  0  0
    4.1920   -4.6230   -1.2670 N   0  0  0  0  0  2  0  0  0  0  0  0
    4.4670   -3.6550   -0.3410 C   0  0  0  0  0  0  0  0  0  0  0  0
    5.6950   -3.2570    0.2300 C   0  0  0  0  0  3  0  0  0  0  0  0
    5.7520   -2.1700    1.1210 C   0  0  0  0  0  3  0  0  0  0  0  0
    4.5520   -1.5220    1.3850 C   0  0  0  0  0  0  0  0  0  0  0  0
    3.3110   -1.9350    0.8820 C   0  0  0  0  0  0  0  0  0  0  0  0
    3.2950   -3.0050    0.0330 C   0  0  0  0  0  0  0  0  0  0  0  0
    2.2510   -1.0120    1.3050 C   0  0  0  0  0  2  0  0  0  0  0  0
    3.1380    0.1620    1.8020 C   0  0  2  0  0  3  0  0  0  0  0  0
    4.4590   -0.3730    2.1480 O   0  0  0  0  0  0  0  0  0  0  0  0
    1.4020   -4.7560   -2.9570 H   0  0  0  0  0  0  0  0  0  0  0  0
    2.8350   -5.6290   -3.2170 H   0  0  0  0  0  0  0  0  0  0  0  0
    0.8990   -3.7310   -0.2740 C   0  0  0  0  0  3  0  0  0  0  0  0
   -0.0600   -2.7340   -0.9570 C   0  0  0  0  0  3  0  0  0  0  0  0
    0.4470   -1.7890   -2.0560 C   0  0  0  0  0  2  0  0  0  0  0  0
   -0.7020    0.1870   -3.1160 C   0  0  0  0  0  1  0  0  0  0  0  0
    0.0070   -0.3530   -1.9120 N   0  0  0  0  0  4  0  0  0  0  0  0
   -0.8400   -0.1870   -0.6660 C   0  0  0  0  0  1  0  0  0  0  0  0
    0.8310    0.2280   -1.7160 H   0  0  0  0  0  0  0  0  0  0  0  0
    2.5830    0.8870    3.0320 C   0  0  0  0  0  2  0  0  0  0  0  0
    2.7530    2.3960    2.8830 N   0  0  0  0  0  4  0  0  0  0  0  0
    3.8930    2.9660    3.6860 C   0  0  0  0  0  1  0  0  0  0  0  0
    2.8410    2.8220    1.4430 C   0  0  0  0  0  1  0  0  0  0  0  0
    1.8870    2.8150    3.2620 H   0  0  0  0  0  0  0  0  0  0  0  0
  1 16  1  0  0  0  0
  1 10  1  0  0  0  0
  2  3  1  1  0  0  0
  2  4  1  0  0  0  0
  2  1  1  0  0  0  0
  4  5  1  0  0  0  0
  5 10  2  0  0  0  0
  5  6  1  0  0  0  0
  6  7  2  0  0  0  0
  7  8  1  0  0  0  0
  8 13  1  0  0  0  0
  9 11  1  0  0  0  0
  9  8  2  0  0  0  0
 10  9  1  0  0  0  0
 11 12  1  0  0  0  0
 12 13  1  0  0  0  0
 12 23  1  1  0  0  0
 14  3  1  0  0  0  0
 15  3  1  0  0  0  0
 17 16  2  0  0  0  0
 18 20  1  0  0  0  0
 18 17  1  0  0  0  0
 19 20  1  0  0  0  0
 20 22  1  0  0  0  0
 20 21  1  0  0  0  0
 24 23  1  0  0  0  0
 24 27  1  0  0  0  0
 24 25  1  0  0  0  0
 26 24  1  0  0  0  0
M  END
>  <minimizedAffinity>
-2.26437449

$$$$
