
 OpenBabel09092210413D

 27 29  0  0  1  0  0  0  0  0999 V2000
    2.4910   -3.8080    2.6470 N   0  0  0  0  0  0  0  0  0  0  0  0
    2.8230   -3.4350    3.9320 C   0  0  2  0  0  3  0  0  0  0  0  0
    2.2320   -3.9470    5.0150 N   0  0  0  0  0  0  0  0  0  0  0  0
    3.7040   -2.4680    3.9190 N   0  0  0  0  0  2  0  0  0  0  0  0
    4.1940   -2.4320    2.6420 C   0  0  0  0  0  0  0  0  0  0  0  0
    5.2540   -1.6820    2.0900 C   0  0  0  0  0  3  0  0  0  0  0  0
    5.6380   -1.8640    0.7480 C   0  0  0  0  0  3  0  0  0  0  0  0
    4.9280   -2.8150    0.0260 C   0  0  0  0  0  0  0  0  0  0  0  0
    3.8320   -3.5270    0.5310 C   0  0  0  0  0  0  0  0  0  0  0  0
    3.4800   -3.3110    1.8320 C   0  0  0  0  0  0  0  0  0  0  0  0
    3.3400   -4.4880   -0.4640 C   0  0  0  0  0  2  0  0  0  0  0  0
    4.5440   -4.4600   -1.4430 C   0  0  2  0  0  3  0  0  0  0  0  0
    5.2540   -3.1890   -1.2650 O   0  0  0  0  0  0  0  0  0  0  0  0
    1.7970   -4.8640    5.0480 H   0  0  0  0  0  0  0  0  0  0  0  0
    2.5760   -3.6370    5.9240 H   0  0  0  0  0  0  0  0  0  0  0  0
    1.2300   -4.3780    2.2290 C   0  0  0  0  0  2  0  0  0  0  0  0
    0.2120   -3.4440    1.5430 C   0  0  0  0  0  2  0  0  0  0  0  0
   -0.2990   -3.7480    0.1270 C   0  0  0  0  0  2  0  0  0  0  0  0
   -0.7480   -2.5370   -2.0370 C   0  0  0  0  0  1  0  0  0  0  0  0
    0.2400   -2.8410   -0.9510 N   0  0  0  0  0  4  0  0  0  0  0  0
    0.7800   -1.5640   -0.3390 C   0  0  0  0  0  1  0  0  0  0  0  0
    1.0730   -3.2760   -1.3640 H   0  0  0  0  0  0  0  0  0  0  0  0
    4.1530   -4.5830   -2.9190 C   0  0  0  0  0  2  0  0  0  0  0  0
    2.7500   -4.0290   -3.1470 N   0  0  0  0  0  4  0  0  0  0  0  0
    2.7260   -2.6730   -3.8010 C   0  0  0  0  0  1  0  0  0  0  0  0
    1.8640   -4.9990   -3.8810 C   0  0  0  0  0  1  0  0  0  0  0  0
    2.3390   -3.9100   -2.2050 H   0  0  0  0  0  0  0  0  0  0  0  0
  1  2  1  0  0  0  0
  2  3  1  6  0  0  0
  3 14  1  0  0  0  0
  3 15  1  0  0  0  0
  4  2  1  0  0  0  0
  5  4  1  0  0  0  0
  6  5  1  0  0  0  0
  7  6  2  0  0  0  0
  8  9  2  0  0  0  0
  8  7  1  0  0  0  0
  9 10  1  0  0  0  0
 10  5  2  0  0  0  0
 10  1  1  0  0  0  0
 11  9  1  0  0  0  0
 12 23  1  6  0  0  0
 12 13  1  0  0  0  0
 12 11  1  0  0  0  0
 13  8  1  0  0  0  0
 16  1  1  0  0  0  0
 17 16  1  0  0  0  0
 18 17  1  0  0  0  0
 19 20  1  0  0  0  0
 20 21  1  0  0  0  0
 20 18  1  0  0  0  0
 22 20  1  0  0  0  0
 24 23  1  0  0  0  0
 24 27  1  0  0  0  0
 25 24  1  0  0  0  0
 26 24  1  0  0  0  0
M  END
>  <minimizedAffinity>
-2.02723765

$$$$
