
 OpenBabel09082221143D

 27 29  0  0  1  0  0  0  0  0999 V2000
    2.2980   -3.6750   -0.6350 N   0  0  0  0  0  0  0  0  0  0  0  0
    2.9250   -4.4790   -1.5620 C   0  0  2  0  0  3  0  0  0  0  0  0
    2.2750   -5.0880   -2.5570 N   0  0  0  0  0  0  0  0  0  0  0  0
    4.1920   -4.6230   -1.2670 N   0  0  0  0  0  2  0  0  0  0  0  0
    4.4670   -3.6550   -0.3410 C   0  0  0  0  0  0  0  0  0  0  0  0
    5.6950   -3.2570    0.2300 C   0  0  0  0  0  3  0  0  0  0  0  0
    5.7520   -2.1700    1.1210 C   0  0  0  0  0  3  0  0  0  0  0  0
    4.5520   -1.5220    1.3850 C   0  0  0  0  0  0  0  0  0  0  0  0
    3.3110   -1.9350    0.8820 C   0  0  0  0  0  0  0  0  0  0  0  0
    3.2950   -3.0050    0.0330 C   0  0  0  0  0  0  0  0  0  0  0  0
    2.2510   -1.0120    1.3050 C   0  0  0  0  0  2  0  0  0  0  0  0
    3.1380    0.1620    1.8020 C   0  0  2  0  0  3  0  0  0  0  0  0
    4.4590   -0.3730    2.1480 O   0  0  0  0  0  0  0  0  0  0  0  0
    1.4020   -4.7560   -2.9570 H   0  0  0  0  0  0  0  0  0  0  0  0
    2.8350   -5.6290   -3.2170 H   0  0  0  0  0  0  0  0  0  0  0  0
    0.8990   -3.7310   -0.2740 C   0  0  0  0  0  3  0  0  0  0  0  0
   -0.0600   -2.7340   -0.9570 C   0  0  0  0  0  3  0  0  0  0  0  0
    0.4470   -1.7890   -2.0560 C   0  0  0  0  0  2  0  0  0  0  0  0
   -0.7020    0.1870   -3.1160 C   0  0  0  0  0  1  0  0  0  0  0  0
    0.0070   -0.3530   -1.9120 N   0  0  0  0  0  4  0  0  0  0  0  0
   -0.8400   -0.1870   -0.6660 C   0  0  0  0  0  1  0  0  0  0  0  0
    0.8310    0.2280   -1.7160 H   0  0  0  0  0  0  0  0  0  0  0  0
    2.5830    0.8870    3.0320 C   0  0  0  0  0  2  0  0  0  0  0  0
    2.7530    2.3960    2.8830 N   0  0  0  0  0  4  0  0  0  0  0  0
    3.8930    2.9660    3.6860 C   0  0  0  0  0  1  0  0  0  0  0  0
    2.8410    2.8220    1.4430 C   0  0  0  0  0  1  0  0  0  0  0  0
    1.8870    2.8150    3.2620 H   0  0  0  0  0  0  0  0  0  0  0  0
  1 16  1  0  0  0  0
  1 10  1  0  0  0  0
  2  3  1  1  0  0  0
  2  4  1  0  0  0  0
  2  1  1  0  0  0  0
  4  5  1  0  0  0  0
  5 10  2  0  0  0  0
  5  6  1  0  0  0  0
  6  7  2  0  0  0  0
  7  8  1  0  0  0  0
  8 13  1  0  0  0  0
  9 11  1  0  0  0  0
  9  8  2  0  0  0  0
 10  9  1  0  0  0  0
 11 12  1  0  0  0  0
 12 13  1  0  0  0  0
 12 23  1  1  0  0  0
 14  3  1  0  0  0  0
 15  3  1  0  0  0  0
 17 16  2  0  0  0  0
 18 20  1  0  0  0  0
 18 17  1  0  0  0  0
 19 20  1  0  0  0  0
 20 22  1  0  0  0  0
 20 21  1  0  0  0  0
 24 23  1  0  0  0  0
 24 27  1  0  0  0  0
 24 25  1  0  0  0  0
 26 24  1  0  0  0  0
M  END
>  <minimizedAffinity>
-2.26437449

$$$$

 OpenBabel09082221143D

 27 29  0  0  1  0  0  0  0  0999 V2000
    2.9480   -0.7720    2.3780 N   0  0  0  0  0  0  0  0  0  0  0  0
    3.9990   -0.4000    3.1890 C   0  0  2  0  0  3  0  0  0  0  0  0
    3.8320    0.2330    4.3540 N   0  0  0  0  0  0  0  0  0  0  0  0
    5.1430   -0.6680    2.6150 N   0  0  0  0  0  2  0  0  0  0  0  0
    4.8470   -1.5110    1.5790 C   0  0  0  0  0  0  0  0  0  0  0  0
    5.6980   -2.2200    0.7050 C   0  0  0  0  0  3  0  0  0  0  0  0
    5.1660   -3.1020   -0.2550 C   0  0  0  0  0  3  0  0  0  0  0  0
    3.7840   -3.2320   -0.2750 C   0  0  0  0  0  0  0  0  0  0  0  0
    2.9140   -2.4930    0.5370 C   0  0  0  0  0  0  0  0  0  0  0  0
    3.4670   -1.6360    1.4440 C   0  0  0  0  0  0  0  0  0  0  0  0
    1.5220   -2.9020    0.3080 C   0  0  0  0  0  2  0  0  0  0  0  0
    1.7840   -4.2180   -0.4740 C   0  0  2  0  0  3  0  0  0  0  0  0
    3.1170   -4.1370   -1.0810 O   0  0  0  0  0  0  0  0  0  0  0  0
    2.9920    0.1720    4.9220 H   0  0  0  0  0  0  0  0  0  0  0  0
    4.6700    0.4290    4.9020 H   0  0  0  0  0  0  0  0  0  0  0  0
    1.6340   -0.1680    2.3640 C   0  0  0  0  0  2  0  0  0  0  0  0
    1.3000    0.7980    1.2090 C   0  0  0  0  0  2  0  0  0  0  0  0
    1.5160    2.3100    1.3660 C   0  0  0  0  0  2  0  0  0  0  0  0
    3.2420    3.7000    0.1670 C   0  0  0  0  0  1  0  0  0  0  0  0
    2.9550    2.7570    1.2960 N   0  0  0  0  0  4  0  0  0  0  0  0
    3.3830    3.3550    2.6220 C   0  0  0  0  0  1  0  0  0  0  0  0
    3.5550    1.9290    1.2060 H   0  0  0  0  0  0  0  0  0  0  0  0
    0.7710   -4.4950   -1.5890 C   0  0  0  0  0  2  0  0  0  0  0  0
    1.4870   -4.9310   -2.8640 N   0  0  0  0  0  4  0  0  0  0  0  0
    1.3410   -6.3960   -3.1770 C   0  0  0  0  0  1  0  0  0  0  0  0
    1.1110   -4.0840   -4.0490 C   0  0  0  0  0  1  0  0  0  0  0  0
    2.4940   -4.7650   -2.6910 H   0  0  0  0  0  0  0  0  0  0  0  0
  1  2  1  0  0  0  0
  2  3  1  6  0  0  0
  3 15  1  0  0  0  0
  3 14  1  0  0  0  0
  4  2  1  0  0  0  0
  5  4  1  0  0  0  0
  6  5  2  0  0  0  0
  7  6  1  0  0  0  0
  8  7  2  0  0  0  0
  8  9  1  0  0  0  0
  9 10  2  0  0  0  0
 10  5  1  0  0  0  0
 10  1  1  0  0  0  0
 11  9  1  0  0  0  0
 12 23  1  6  0  0  0
 12 11  1  0  0  0  0
 13 12  1  0  0  0  0
 13  8  1  0  0  0  0
 16  1  1  0  0  0  0
 17 18  1  0  0  0  0
 17 16  1  0  0  0  0
 19 20  1  0  0  0  0
 20 18  1  0  0  0  0
 20 21  1  0  0  0  0
 22 20  1  0  0  0  0
 24 27  1  0  0  0  0
 24 23  1  0  0  0  0
 25 24  1  0  0  0  0
 26 24  1  0  0  0  0
M  END
>  <minimizedAffinity>
-2.19308877

$$$$

 OpenBabel09082221143D

 27 29  0  0  1  0  0  0  0  0999 V2000
    1.3150   -2.6260   -1.8820 N   0  0  0  0  0  0  0  0  0  0  0  0
    0.9390   -1.8630   -2.9670 C   0  0  2  0  0  3  0  0  0  0  0  0
   -0.1250   -1.0560   -2.9560 N   0  0  0  0  0  0  0  0  0  0  0  0
    1.7020   -2.1190   -3.9990 N   0  0  0  0  0  2  0  0  0  0  0  0
    2.7790   -2.8000   -3.5010 C   0  0  0  0  0  0  0  0  0  0  0  0
    3.9730   -3.2110   -4.1320 C   0  0  0  0  0  3  0  0  0  0  0  0
    4.9920   -3.8430   -3.3950 C   0  0  0  0  0  3  0  0  0  0  0  0
    4.7540   -4.0200   -2.0380 C   0  0  0  0  0  0  0  0  0  0  0  0
    3.5540   -3.6800   -1.4010 C   0  0  0  0  0  0  0  0  0  0  0  0
    2.5830   -3.0830   -2.1530 C   0  0  0  0  0  0  0  0  0  0  0  0
    3.6420   -3.9460    0.0410 C   0  0  0  0  0  2  0  0  0  0  0  0
    5.1790   -4.1350    0.1570 C   0  0  2  0  0  3  0  0  0  0  0  0
    5.6980   -4.5220   -1.1600 O   0  0  0  0  0  0  0  0  0  0  0  0
   -0.5170   -0.6380   -2.1180 H   0  0  0  0  0  0  0  0  0  0  0  0
   -0.2980   -0.5010   -3.7960 H   0  0  0  0  0  0  0  0  0  0  0  0
    0.4490   -3.0590   -0.8100 C   0  0  0  0  0  2  0  0  0  0  0  0
    0.2980   -2.1310    0.4130 C   0  0  0  0  0  2  0  0  0  0  0  0
    1.3700   -1.0790    0.7330 C   0  0  0  0  0  2  0  0  0  0  0  0
   -0.4920    0.5640    0.3020 C   0  0  0  0  0  1  0  0  0  0  0  0
    0.9870    0.3410    0.3950 N   0  0  0  0  0  4  0  0  0  0  0  0
    1.6180    1.3020    1.3830 C   0  0  0  0  0  1  0  0  0  0  0  0
    1.4250    0.5980   -0.4970 H   0  0  0  0  0  0  0  0  0  0  0  0
    5.6040   -5.2060    1.1670 C   0  0  0  0  0  2  0  0  0  0  0  0
    4.5180   -5.4050    2.2200 N   0  0  0  0  0  4  0  0  0  0  0  0
    4.1150   -6.8420    2.4200 C   0  0  0  0  0  1  0  0  0  0  0  0
    4.8670   -4.7540    3.5310 C   0  0  0  0  0  1  0  0  0  0  0  0
    3.6830   -4.9120    1.8600 H   0  0  0  0  0  0  0  0  0  0  0  0
  1 16  1  0  0  0  0
  2  3  1  6  0  0  0
  2  1  1  0  0  0  0
  3 14  1  0  0  0  0
  4  5  1  0  0  0  0
  4  2  1  0  0  0  0
  5 10  1  0  0  0  0
  6  5  2  0  0  0  0
  6  7  1  0  0  0  0
  7  8  2  0  0  0  0
  8  9  1  0  0  0  0
  8 13  1  0  0  0  0
  9 11  1  0  0  0  0
 10  1  1  0  0  0  0
 10  9  2  0  0  0  0
 11 12  1  0  0  0  0
 12 23  1  1  0  0  0
 13 12  1  0  0  0  0
 15  3  1  0  0  0  0
 16 17  1  0  0  0  0
 17 18  1  0  0  0  0
 19 20  1  0  0  0  0
 20 18  1  0  0  0  0
 20 21  1  0  0  0  0
 22 20  1  0  0  0  0
 23 24  1  0  0  0  0
 24 25  1  0  0  0  0
 24 26  1  0  0  0  0
 27 24  1  0  0  0  0
M  END
>  <minimizedAffinity>
-2.18895864

$$$$

 OpenBabel09082221143D

 27 29  0  0  1  0  0  0  0  0999 V2000
    4.1200   -3.7400   -2.2470 N   0  0  0  0  0  0  0  0  0  0  0  0
    4.4500   -3.4260   -3.5480 C   0  0  2  0  0  3  0  0  0  0  0  0
    5.5740   -3.8470   -4.1370 N   0  0  0  0  0  0  0  0  0  0  0  0
    3.5720   -2.6030   -4.0620 N   0  0  0  0  0  2  0  0  0  0  0  0
    2.4970   -2.6380   -3.2180 C   0  0  0  0  0  0  0  0  0  0  0  0
    1.2170   -2.0550   -3.3420 C   0  0  0  0  0  3  0  0  0  0  0  0
    0.2260   -2.2880   -2.3700 C   0  0  0  0  0  3  0  0  0  0  0  0
    0.5790   -3.1190   -1.3140 C   0  0  0  0  0  0  0  0  0  0  0  0
    1.8600   -3.6570   -1.1340 C   0  0  0  0  0  0  0  0  0  0  0  0
    2.7990   -3.3950   -2.0900 C   0  0  0  0  0  0  0  0  0  0  0  0
    1.8910   -4.5300    0.0470 C   0  0  0  0  0  2  0  0  0  0  0  0
    0.3620   -4.6810    0.2740 C   0  0  2  0  0  3  0  0  0  0  0  0
   -0.3120   -3.5320   -0.3410 O   0  0  0  0  0  0  0  0  0  0  0  0
    6.0780   -4.6870   -3.8710 H   0  0  0  0  0  0  0  0  0  0  0  0
    5.7090   -3.5950   -5.1170 H   0  0  0  0  0  0  0  0  0  0  0  0
    5.0490   -4.1100   -1.2030 C   0  0  0  0  0  2  0  0  0  0  0  0
    5.3430   -3.0720   -0.1010 C   0  0  0  0  0  2  0  0  0  0  0  0
    5.2760   -3.4640    1.3820 C   0  0  0  0  0  2  0  0  0  0  0  0
    5.4340   -1.7600    3.2310 C   0  0  0  0  0  1  0  0  0  0  0  0
    4.5450   -2.4850    2.2660 N   0  0  0  0  0  4  0  0  0  0  0  0
    3.7530   -1.5070    1.4220 C   0  0  0  0  0  1  0  0  0  0  0  0
    3.8190   -2.9890    2.7890 H   0  0  0  0  0  0  0  0  0  0  0  0
   -0.0480   -4.7380    1.7490 C   0  0  0  0  0  2  0  0  0  0  0  0
   -0.2530   -3.3300    2.3000 N   0  0  0  0  0  4  0  0  0  0  0  0
   -1.6180   -3.0950    2.8890 C   0  0  0  0  0  1  0  0  0  0  0  0
    0.8290   -2.9320    3.2680 C   0  0  0  0  0  1  0  0  0  0  0  0
   -0.1690   -2.6950    1.4870 H   0  0  0  0  0  0  0  0  0  0  0  0
  1 10  1  0  0  0  0
  1 16  1  0  0  0  0
  2  3  1  1  0  0  0
  2  1  1  0  0  0  0
  3 14  1  0  0  0  0
  4  2  1  0  0  0  0
  4  5  1  0  0  0  0
  5 10  1  0  0  0  0
  6  5  2  0  0  0  0
  6  7  1  0  0  0  0
  7  8  2  0  0  0  0
  8  9  1  0  0  0  0
  8 13  1  0  0  0  0
  9 11  1  0  0  0  0
 10  9  2  0  0  0  0
 11 12  1  0  0  0  0
 12 23  1  1  0  0  0
 13 12  1  0  0  0  0
 15  3  1  0  0  0  0
 16 17  1  0  0  0  0
 17 18  1  0  0  0  0
 18 20  1  0  0  0  0
 20 22  1  0  0  0  0
 20 19  1  0  0  0  0
 21 20  1  0  0  0  0
 23 24  1  0  0  0  0
 24 25  1  0  0  0  0
 24 26  1  0  0  0  0
 27 24  1  0  0  0  0
M  END
>  <minimizedAffinity>
-2.18437505

$$$$

 OpenBabel09082221143D

 27 29  0  0  1  0  0  0  0  0999 V2000
    1.6510   -2.4450    2.0060 N   0  0  0  0  0  0  0  0  0  0  0  0
    1.7330   -2.4300    3.3820 C   0  0  2  0  0  3  0  0  0  0  0  0
    0.6820   -2.6460    4.1770 N   0  0  0  0  0  0  0  0  0  0  0  0
    2.9350   -2.0870    3.7690 N   0  0  0  0  0  2  0  0  0  0  0  0
    3.7260   -2.1990    2.6590 C   0  0  0  0  0  0  0  0  0  0  0  0
    5.1250   -2.0830    2.5170 C   0  0  0  0  0  3  0  0  0  0  0  0
    5.7410   -2.3150    1.2730 C   0  0  0  0  0  3  0  0  0  0  0  0
    4.9020   -2.6670    0.2240 C   0  0  0  0  0  0  0  0  0  0  0  0
    3.5060   -2.7260    0.3220 C   0  0  0  0  0  0  0  0  0  0  0  0
    2.9440   -2.4790    1.5420 C   0  0  0  0  0  0  0  0  0  0  0  0
    2.9180   -3.1770   -0.9460 C   0  0  0  0  0  2  0  0  0  0  0  0
    4.2070   -3.7050   -1.6340 C   0  0  2  0  0  3  0  0  0  0  0  0
    5.3620   -3.0330   -1.0280 O   0  0  0  0  0  0  0  0  0  0  0  0
   -0.1350   -3.1860    3.9090 H   0  0  0  0  0  0  0  0  0  0  0  0
    0.8530   -2.6550    5.1830 H   0  0  0  0  0  0  0  0  0  0  0  0
    0.4570   -2.2100    1.2260 C   0  0  0  0  0  2  0  0  0  0  0  0
    0.3130   -0.8420    0.5260 C   0  0  0  0  0  2  0  0  0  0  0  0
    0.4560    0.4630    1.3230 C   0  0  0  0  0  2  0  0  0  0  0  0
    0.8960    2.8330    0.5910 C   0  0  0  0  0  1  0  0  0  0  0  0
    1.4460    1.4490    0.7550 N   0  0  0  0  0  4  0  0  0  0  0  0
    2.7090    1.4650    1.5920 C   0  0  0  0  0  1  0  0  0  0  0  0
    1.7710    1.1040   -0.1560 H   0  0  0  0  0  0  0  0  0  0  0  0
    4.2540   -3.4600   -3.1450 C   0  0  0  0  0  2  0  0  0  0  0  0
    4.5100   -4.7670   -3.8890 N   0  0  0  0  0  4  0  0  0  0  0  0
    5.7540   -5.4910   -3.4460 C   0  0  0  0  0  1  0  0  0  0  0  0
    3.3150   -5.6820   -3.8660 C   0  0  0  0  0  1  0  0  0  0  0  0
    4.6590   -4.5030   -4.8780 H   0  0  0  0  0  0  0  0  0  0  0  0
  1  2  1  0  0  0  0
  2  4  1  0  0  0  0
  2  3  1  1  0  0  0
  3 15  1  0  0  0  0
  5  4  1  0  0  0  0
  6  5  1  0  0  0  0
  7  6  2  0  0  0  0
  8  9  2  0  0  0  0
  8  7  1  0  0  0  0
  9 10  1  0  0  0  0
 10  1  1  0  0  0  0
 10  5  2  0  0  0  0
 11  9  1  0  0  0  0
 12 23  1  6  0  0  0
 12 13  1  0  0  0  0
 12 11  1  0  0  0  0
 13  8  1  0  0  0  0
 14  3  1  0  0  0  0
 16  1  1  0  0  0  0
 17 16  1  0  0  0  0
 17 18  1  0  0  0  0
 19 20  1  0  0  0  0
 20 18  1  0  0  0  0
 20 21  1  0  0  0  0
 22 20  1  0  0  0  0
 24 26  1  0  0  0  0
 24 25  1  0  0  0  0
 24 23  1  0  0  0  0
 27 24  1  0  0  0  0
M  END
>  <minimizedAffinity>
-2.17034292

$$$$

 OpenBabel09082221143D

 27 29  0  0  1  0  0  0  0  0999 V2000
    3.2520   -4.8150   -0.0060 N   0  0  0  0  0  0  0  0  0  0  0  0
    4.3920   -5.5900    0.0230 C   0  0  2  0  0  3  0  0  0  0  0  0
    4.6030   -6.5390    0.9380 N   0  0  0  0  0  0  0  0  0  0  0  0
    5.2410   -5.1970   -0.8910 N   0  0  0  0  0  2  0  0  0  0  0  0
    4.5300   -4.3860   -1.7320 C   0  0  0  0  0  0  0  0  0  0  0  0
    4.8970   -3.7920   -2.9580 C   0  0  0  0  0  3  0  0  0  0  0  0
    3.9640   -3.0450   -3.7000 C   0  0  0  0  0  3  0  0  0  0  0  0
    2.6870   -2.9440   -3.1650 C   0  0  0  0  0  0  0  0  0  0  0  0
    2.3140   -3.4690   -1.9210 C   0  0  0  0  0  0  0  0  0  0  0  0
    3.2520   -4.1740   -1.2230 C   0  0  0  0  0  0  0  0  0  0  0  0
    0.8860   -3.2370   -1.6700 C   0  0  0  0  0  2  0  0  0  0  0  0
    0.4510   -2.8360   -3.1060 C   0  0  2  0  0  3  0  0  0  0  0  0
    1.6310   -2.3400   -3.8240 O   0  0  0  0  0  0  0  0  0  0  0  0
    3.8650   -7.0340    1.4300 H   0  0  0  0  0  0  0  0  0  0  0  0
    5.4600   -7.0880    0.8520 H   0  0  0  0  0  0  0  0  0  0  0  0
    2.3840   -4.5400    1.1170 C   0  0  0  0  0  2  0  0  0  0  0  0
    2.9520   -3.6910    2.2730 C   0  0  0  0  0  2  0  0  0  0  0  0
    3.5620   -2.3080    2.0010 C   0  0  0  0  0  2  0  0  0  0  0  0
    5.7520   -1.9920    0.7970 C   0  0  0  0  0  1  0  0  0  0  0  0
    5.0650   -2.2460    2.1040 N   0  0  0  0  0  4  0  0  0  0  0  0
    5.4770   -1.2180    3.1400 C   0  0  0  0  0  1  0  0  0  0  0  0
    5.4070   -3.1300    2.5000 H   0  0  0  0  0  0  0  0  0  0  0  0
   -0.6250   -1.7460   -3.1530 C   0  0  0  0  0  2  0  0  0  0  0  0
   -0.0310   -0.3940   -2.7700 N   0  0  0  0  0  4  0  0  0  0  0  0
   -0.1110    0.6400   -3.8610 C   0  0  0  0  0  1  0  0  0  0  0  0
   -0.5990    0.1350   -1.4810 C   0  0  0  0  0  1  0  0  0  0  0  0
    0.9740   -0.5670   -2.6000 H   0  0  0  0  0  0  0  0  0  0  0  0
  1  2  1  0  0  0  0
  1 16  1  0  0  0  0
  2  3  1  1  0  0  0
  3 14  1  0  0  0  0
  4  2  1  0  0  0  0
  5 10  1  0  0  0  0
  5  4  1  0  0  0  0
  6  5  2  0  0  0  0
  7  8  2  0  0  0  0
  7  6  1  0  0  0  0
  8  9  1  0  0  0  0
  9 11  1  0  0  0  0
  9 10  2  0  0  0  0
 10  1  1  0  0  0  0
 12 23  1  1  0  0  0
 12 11  1  0  0  0  0
 13  8  1  0  0  0  0
 13 12  1  0  0  0  0
 15  3  1  0  0  0  0
 16 17  1  0  0  0  0
 18 20  1  0  0  0  0
 18 17  1  0  0  0  0
 19 20  1  0  0  0  0
 20 22  1  0  0  0  0
 20 21  1  0  0  0  0
 23 24  1  0  0  0  0
 24 27  1  0  0  0  0
 24 26  1  0  0  0  0
 25 24  1  0  0  0  0
M  END
>  <minimizedAffinity>
-2.15546799

$$$$

 OpenBabel09082221143D

 27 29  0  0  1  0  0  0  0  0999 V2000
    4.0530   -3.4820   -2.2990 N   0  0  0  0  0  0  0  0  0  0  0  0
    4.3610   -3.2040   -3.6140 C   0  0  2  0  0  3  0  0  0  0  0  0
    5.5270   -3.5350   -4.1740 N   0  0  0  0  0  0  0  0  0  0  0  0
    3.4070   -2.5060   -4.1740 N   0  0  0  0  0  2  0  0  0  0  0  0
    2.3330   -2.6080   -3.3340 C   0  0  0  0  0  0  0  0  0  0  0  0
    1.0010   -2.1690   -3.4940 C   0  0  0  0  0  3  0  0  0  0  0  0
    0.0300   -2.4530   -2.5160 C   0  0  0  0  0  3  0  0  0  0  0  0
    0.4570   -3.1860   -1.4160 C   0  0  0  0  0  0  0  0  0  0  0  0
    1.7850   -3.5780   -1.2010 C   0  0  0  0  0  0  0  0  0  0  0  0
    2.7010   -3.2690   -2.1660 C   0  0  0  0  0  0  0  0  0  0  0  0
    1.8950   -4.3790    0.0240 C   0  0  0  0  0  2  0  0  0  0  0  0
    0.3880   -4.6770    0.2530 C   0  0  2  0  0  3  0  0  0  0  0  0
   -0.3960   -3.6390   -0.4260 O   0  0  0  0  0  0  0  0  0  0  0  0
    6.1140   -4.3030   -3.8610 H   0  0  0  0  0  0  0  0  0  0  0  0
    5.6450   -3.3230   -5.1650 H   0  0  0  0  0  0  0  0  0  0  0  0
    5.0040   -3.6980   -1.2330 C   0  0  0  0  0  2  0  0  0  0  0  0
    5.6620   -5.0900   -1.1270 C   0  0  0  0  0  2  0  0  0  0  0  0
    4.8080   -6.3410   -0.8760 C   0  0  0  0  0  2  0  0  0  0  0  0
    3.1890   -6.9470   -2.7100 C   0  0  0  0  0  1  0  0  0  0  0  0
    4.5380   -7.1820   -2.0990 N   0  0  0  0  0  4  0  0  0  0  0  0
    5.6370   -6.9840   -3.1230 C   0  0  0  0  0  1  0  0  0  0  0  0
    4.6260   -8.1730   -1.8460 H   0  0  0  0  0  0  0  0  0  0  0  0
   -0.0290   -4.6990    1.7270 C   0  0  0  0  0  2  0  0  0  0  0  0
    0.8770   -3.7880    2.5500 N   0  0  0  0  0  4  0  0  0  0  0  0
    0.2710   -2.4460    2.8660 C   0  0  0  0  0  1  0  0  0  0  0  0
    1.3820   -4.4600    3.7980 C   0  0  0  0  0  1  0  0  0  0  0  0
    1.7060   -3.6050    1.9580 H   0  0  0  0  0  0  0  0  0  0  0  0
  1 10  1  0  0  0  0
  1 16  1  0  0  0  0
  2  3  1  1  0  0  0
  2  1  1  0  0  0  0
  3 14  1  0  0  0  0
  4  2  1  0  0  0  0
  4  5  1  0  0  0  0
  5 10  1  0  0  0  0
  6  5  2  0  0  0  0
  6  7  1  0  0  0  0
  7  8  2  0  0  0  0
  8  9  1  0  0  0  0
  8 13  1  0  0  0  0
  9 11  1  0  0  0  0
 10  9  2  0  0  0  0
 11 12  1  0  0  0  0
 12 23  1  1  0  0  0
 13 12  1  0  0  0  0
 15  3  1  0  0  0  0
 16 17  1  0  0  0  0
 17 18  1  0  0  0  0
 19 20  1  0  0  0  0
 20 22  1  0  0  0  0
 20 18  1  0  0  0  0
 21 20  1  0  0  0  0
 23 24  1  0  0  0  0
 24 25  1  0  0  0  0
 24 26  1  0  0  0  0
 27 24  1  0  0  0  0
M  END
>  <minimizedAffinity>
-2.14450264

$$$$

 OpenBabel09082221143D

 27 29  0  0  1  0  0  0  0  0999 V2000
    4.0820   -6.1150   -1.1810 N   0  0  0  0  0  0  0  0  0  0  0  0
    5.1650   -6.7340   -1.7670 C   0  0  2  0  0  3  0  0  0  0  0  0
    5.5840   -7.9530   -1.4170 N   0  0  0  0  0  0  0  0  0  0  0  0
    5.7540   -5.9310   -2.6150 N   0  0  0  0  0  2  0  0  0  0  0  0
    4.8690   -4.9100   -2.8310 C   0  0  0  0  0  0  0  0  0  0  0  0
    4.9160   -3.8370   -3.7470 C   0  0  0  0  0  3  0  0  0  0  0  0
    3.8420   -2.9340   -3.8480 C   0  0  0  0  0  3  0  0  0  0  0  0
    2.7550   -3.1700   -3.0160 C   0  0  0  0  0  0  0  0  0  0  0  0
    2.7100   -4.1880   -2.0550 C   0  0  0  0  0  0  0  0  0  0  0  0
    3.7780   -5.0350   -1.9760 C   0  0  0  0  0  0  0  0  0  0  0  0
    1.4060   -4.2020   -1.3790 C   0  0  0  0  0  2  0  0  0  0  0  0
    0.6190   -3.2860   -2.3550 C   0  0  2  0  0  3  0  0  0  0  0  0
    1.5810   -2.4420   -3.0730 O   0  0  0  0  0  0  0  0  0  0  0  0
    4.9880   -8.6670   -1.0080 H   0  0  0  0  0  0  0  0  0  0  0  0
    6.3710   -8.3430   -1.9380 H   0  0  0  0  0  0  0  0  0  0  0  0
    3.5500   -6.3990    0.1320 C   0  0  0  0  0  2  0  0  0  0  0  0
    3.9790   -5.4820    1.2960 C   0  0  0  0  0  2  0  0  0  0  0  0
    5.4560   -5.1090    1.4950 C   0  0  0  0  0  2  0  0  0  0  0  0
    5.4870   -2.8590    0.3620 C   0  0  0  0  0  1  0  0  0  0  0  0
    5.7270   -3.6310    1.6240 N   0  0  0  0  0  4  0  0  0  0  0  0
    4.9270   -3.0500    2.7730 C   0  0  0  0  0  1  0  0  0  0  0  0
    6.7000   -3.4970    1.9220 H   0  0  0  0  0  0  0  0  0  0  0  0
   -0.3990   -2.3690   -1.6700 C   0  0  0  0  0  2  0  0  0  0  0  0
    0.2260   -1.0100   -1.3690 N   0  0  0  0  0  4  0  0  0  0  0  0
   -0.5890    0.1590   -1.8540 C   0  0  0  0  0  1  0  0  0  0  0  0
    0.5820   -0.8550    0.0850 C   0  0  0  0  0  1  0  0  0  0  0  0
    1.1170   -0.9880   -1.8940 H   0  0  0  0  0  0  0  0  0  0  0  0
  1 16  1  0  0  0  0
  2  3  1  1  0  0  0
  2  1  1  0  0  0  0
  3 14  1  0  0  0  0
  4  2  1  0  0  0  0
  5  4  1  0  0  0  0
  5 10  1  0  0  0  0
  6  5  2  0  0  0  0
  7  6  1  0  0  0  0
  7  8  2  0  0  0  0
  8  9  1  0  0  0  0
  9 10  2  0  0  0  0
  9 11  1  0  0  0  0
 10  1  1  0  0  0  0
 12 23  1  1  0  0  0
 12 11  1  0  0  0  0
 13  8  1  0  0  0  0
 13 12  1  0  0  0  0
 15  3  1  0  0  0  0
 16 17  1  0  0  0  0
 17 18  1  0  0  0  0
 18 20  1  0  0  0  0
 19 20  1  0  0  0  0
 20 22  1  0  0  0  0
 20 21  1  0  0  0  0
 23 24  1  0  0  0  0
 24 26  1  0  0  0  0
 25 24  1  0  0  0  0
 27 24  1  0  0  0  0
M  END
>  <minimizedAffinity>
-2.10895586

$$$$

 OpenBabel09082221143D

 27 29  0  0  1  0  0  0  0  0999 V2000
    3.7970   -2.2450    1.3730 N   0  0  0  0  0  0  0  0  0  0  0  0
    5.1560   -2.0260    1.4420 C   0  0  2  0  0  3  0  0  0  0  0  0
    5.7530   -1.4860    2.5080 N   0  0  0  0  0  0  0  0  0  0  0  0
    5.7310   -2.3270    0.3070 N   0  0  0  0  0  2  0  0  0  0  0  0
    4.8060   -3.0510   -0.3940 C   0  0  0  0  0  0  0  0  0  0  0  0
    4.9230   -3.7440   -1.6180 C   0  0  0  0  0  3  0  0  0  0  0  0
    3.8450   -4.4960   -2.1220 C   0  0  0  0  0  3  0  0  0  0  0  0
    2.6920   -4.5190   -1.3470 C   0  0  0  0  0  0  0  0  0  0  0  0
    2.5290   -3.7910   -0.1620 C   0  0  0  0  0  0  0  0  0  0  0  0
    3.5920   -3.0610    0.2860 C   0  0  0  0  0  0  0  0  0  0  0  0
    1.2190   -4.0730    0.4400 C   0  0  0  0  0  2  0  0  0  0  0  0
    0.8400   -5.3310   -0.3870 C   0  0  2  0  0  3  0  0  0  0  0  0
    1.5900   -5.2980   -1.6480 O   0  0  0  0  0  0  0  0  0  0  0  0
    5.3860   -1.5330    3.4540 H   0  0  0  0  0  0  0  0  0  0  0  0
    6.7700   -1.4020    2.4800 H   0  0  0  0  0  0  0  0  0  0  0  0
    2.7860   -1.5460    2.1340 C   0  0  0  0  0  2  0  0  0  0  0  0
    2.1350   -0.3020    1.4930 C   0  0  0  0  0  2  0  0  0  0  0  0
    2.7510    1.0910    1.6880 C   0  0  0  0  0  2  0  0  0  0  0  0
    0.8000    2.4160    0.8020 C   0  0  0  0  0  1  0  0  0  0  0  0
    2.2700    2.1400    0.7170 N   0  0  0  0  0  4  0  0  0  0  0  0
    3.0710    3.4160    0.8840 C   0  0  0  0  0  1  0  0  0  0  0  0
    2.5030    1.8390   -0.2380 H   0  0  0  0  0  0  0  0  0  0  0  0
   -0.6510   -5.4330   -0.7240 C   0  0  0  0  0  2  0  0  0  0  0  0
   -0.8710   -5.2610   -2.2250 N   0  0  0  0  0  4  0  0  0  0  0  0
   -1.6180   -6.3990   -2.8670 C   0  0  0  0  0  1  0  0  0  0  0  0
   -1.5050   -3.9390   -2.5620 C   0  0  0  0  0  1  0  0  0  0  0  0
    0.0730   -5.2510   -2.6470 H   0  0  0  0  0  0  0  0  0  0  0  0
  1  2  1  0  0  0  0
  1 16  1  0  0  0  0
  2  3  1  6  0  0  0
  3 14  1  0  0  0  0
  4  2  1  0  0  0  0
  5 10  1  0  0  0  0
  5  4  1  0  0  0  0
  6  5  2  0  0  0  0
  7  6  1  0  0  0  0
  7  8  2  0  0  0  0
  8  9  1  0  0  0  0
  9 10  2  0  0  0  0
  9 11  1  0  0  0  0
 10  1  1  0  0  0  0
 12 23  1  6  0  0  0
 12 11  1  0  0  0  0
 13  8  1  0  0  0  0
 13 12  1  0  0  0  0
 15  3  1  0  0  0  0
 17 18  1  0  0  0  0
 17 16  1  0  0  0  0
 20 19  1  0  0  0  0
 20 21  1  0  0  0  0
 20 18  1  0  0  0  0
 22 20  1  0  0  0  0
 24 23  1  0  0  0  0
 25 24  1  0  0  0  0
 26 24  1  0  0  0  0
 27 24  1  0  0  0  0
M  END
>  <minimizedAffinity>
-2.04376674

$$$$

 OpenBabel09082221143D

 27 29  0  0  1  0  0  0  0  0999 V2000
    2.4910   -3.8080    2.6470 N   0  0  0  0  0  0  0  0  0  0  0  0
    2.8230   -3.4350    3.9320 C   0  0  2  0  0  3  0  0  0  0  0  0
    2.2320   -3.9470    5.0150 N   0  0  0  0  0  0  0  0  0  0  0  0
    3.7040   -2.4680    3.9190 N   0  0  0  0  0  2  0  0  0  0  0  0
    4.1940   -2.4320    2.6420 C   0  0  0  0  0  0  0  0  0  0  0  0
    5.2540   -1.6820    2.0900 C   0  0  0  0  0  3  0  0  0  0  0  0
    5.6380   -1.8640    0.7480 C   0  0  0  0  0  3  0  0  0  0  0  0
    4.9280   -2.8150    0.0260 C   0  0  0  0  0  0  0  0  0  0  0  0
    3.8320   -3.5270    0.5310 C   0  0  0  0  0  0  0  0  0  0  0  0
    3.4800   -3.3110    1.8320 C   0  0  0  0  0  0  0  0  0  0  0  0
    3.3400   -4.4880   -0.4640 C   0  0  0  0  0  2  0  0  0  0  0  0
    4.5440   -4.4600   -1.4430 C   0  0  2  0  0  3  0  0  0  0  0  0
    5.2540   -3.1890   -1.2650 O   0  0  0  0  0  0  0  0  0  0  0  0
    1.7970   -4.8640    5.0480 H   0  0  0  0  0  0  0  0  0  0  0  0
    2.5760   -3.6370    5.9240 H   0  0  0  0  0  0  0  0  0  0  0  0
    1.2300   -4.3780    2.2290 C   0  0  0  0  0  2  0  0  0  0  0  0
    0.2120   -3.4440    1.5430 C   0  0  0  0  0  2  0  0  0  0  0  0
   -0.2990   -3.7480    0.1270 C   0  0  0  0  0  2  0  0  0  0  0  0
   -0.7480   -2.5370   -2.0370 C   0  0  0  0  0  1  0  0  0  0  0  0
    0.2400   -2.8410   -0.9510 N   0  0  0  0  0  4  0  0  0  0  0  0
    0.7800   -1.5640   -0.3390 C   0  0  0  0  0  1  0  0  0  0  0  0
    1.0730   -3.2760   -1.3640 H   0  0  0  0  0  0  0  0  0  0  0  0
    4.1530   -4.5830   -2.9190 C   0  0  0  0  0  2  0  0  0  0  0  0
    2.7500   -4.0290   -3.1470 N   0  0  0  0  0  4  0  0  0  0  0  0
    2.7260   -2.6730   -3.8010 C   0  0  0  0  0  1  0  0  0  0  0  0
    1.8640   -4.9990   -3.8810 C   0  0  0  0  0  1  0  0  0  0  0  0
    2.3390   -3.9100   -2.2050 H   0  0  0  0  0  0  0  0  0  0  0  0
  1  2  1  0  0  0  0
  2  3  1  6  0  0  0
  3 14  1  0  0  0  0
  3 15  1  0  0  0  0
  4  2  1  0  0  0  0
  5  4  1  0  0  0  0
  6  5  1  0  0  0  0
  7  6  2  0  0  0  0
  8  9  2  0  0  0  0
  8  7  1  0  0  0  0
  9 10  1  0  0  0  0
 10  5  2  0  0  0  0
 10  1  1  0  0  0  0
 11  9  1  0  0  0  0
 12 23  1  6  0  0  0
 12 13  1  0  0  0  0
 12 11  1  0  0  0  0
 13  8  1  0  0  0  0
 16  1  1  0  0  0  0
 17 16  1  0  0  0  0
 18 17  1  0  0  0  0
 19 20  1  0  0  0  0
 20 21  1  0  0  0  0
 20 18  1  0  0  0  0
 22 20  1  0  0  0  0
 24 23  1  0  0  0  0
 24 27  1  0  0  0  0
 25 24  1  0  0  0  0
 26 24  1  0  0  0  0
M  END
>  <minimizedAffinity>
-2.02723765

$$$$
