
 OpenBabel09092210413D

 27 29  0  0  1  0  0  0  0  0999 V2000
    4.0530   -3.4820   -2.2990 N   0  0  0  0  0  0  0  0  0  0  0  0
    4.3610   -3.2040   -3.6140 C   0  0  2  0  0  3  0  0  0  0  0  0
    5.5270   -3.5350   -4.1740 N   0  0  0  0  0  0  0  0  0  0  0  0
    3.4070   -2.5060   -4.1740 N   0  0  0  0  0  2  0  0  0  0  0  0
    2.3330   -2.6080   -3.3340 C   0  0  0  0  0  0  0  0  0  0  0  0
    1.0010   -2.1690   -3.4940 C   0  0  0  0  0  3  0  0  0  0  0  0
    0.0300   -2.4530   -2.5160 C   0  0  0  0  0  3  0  0  0  0  0  0
    0.4570   -3.1860   -1.4160 C   0  0  0  0  0  0  0  0  0  0  0  0
    1.7850   -3.5780   -1.2010 C   0  0  0  0  0  0  0  0  0  0  0  0
    2.7010   -3.2690   -2.1660 C   0  0  0  0  0  0  0  0  0  0  0  0
    1.8950   -4.3790    0.0240 C   0  0  0  0  0  2  0  0  0  0  0  0
    0.3880   -4.6770    0.2530 C   0  0  2  0  0  3  0  0  0  0  0  0
   -0.3960   -3.6390   -0.4260 O   0  0  0  0  0  0  0  0  0  0  0  0
    6.1140   -4.3030   -3.8610 H   0  0  0  0  0  0  0  0  0  0  0  0
    5.6450   -3.3230   -5.1650 H   0  0  0  0  0  0  0  0  0  0  0  0
    5.0040   -3.6980   -1.2330 C   0  0  0  0  0  2  0  0  0  0  0  0
    5.6620   -5.0900   -1.1270 C   0  0  0  0  0  2  0  0  0  0  0  0
    4.8080   -6.3410   -0.8760 C   0  0  0  0  0  2  0  0  0  0  0  0
    3.1890   -6.9470   -2.7100 C   0  0  0  0  0  1  0  0  0  0  0  0
    4.5380   -7.1820   -2.0990 N   0  0  0  0  0  4  0  0  0  0  0  0
    5.6370   -6.9840   -3.1230 C   0  0  0  0  0  1  0  0  0  0  0  0
    4.6260   -8.1730   -1.8460 H   0  0  0  0  0  0  0  0  0  0  0  0
   -0.0290   -4.6990    1.7270 C   0  0  0  0  0  2  0  0  0  0  0  0
    0.8770   -3.7880    2.5500 N   0  0  0  0  0  4  0  0  0  0  0  0
    0.2710   -2.4460    2.8660 C   0  0  0  0  0  1  0  0  0  0  0  0
    1.3820   -4.4600    3.7980 C   0  0  0  0  0  1  0  0  0  0  0  0
    1.7060   -3.6050    1.9580 H   0  0  0  0  0  0  0  0  0  0  0  0
  1 10  1  0  0  0  0
  1 16  1  0  0  0  0
  2  3  1  1  0  0  0
  2  1  1  0  0  0  0
  3 14  1  0  0  0  0
  4  2  1  0  0  0  0
  4  5  1  0  0  0  0
  5 10  1  0  0  0  0
  6  5  2  0  0  0  0
  6  7  1  0  0  0  0
  7  8  2  0  0  0  0
  8  9  1  0  0  0  0
  8 13  1  0  0  0  0
  9 11  1  0  0  0  0
 10  9  2  0  0  0  0
 11 12  1  0  0  0  0
 12 23  1  1  0  0  0
 13 12  1  0  0  0  0
 15  3  1  0  0  0  0
 16 17  1  0  0  0  0
 17 18  1  0  0  0  0
 19 20  1  0  0  0  0
 20 22  1  0  0  0  0
 20 18  1  0  0  0  0
 21 20  1  0  0  0  0
 23 24  1  0  0  0  0
 24 25  1  0  0  0  0
 24 26  1  0  0  0  0
 27 24  1  0  0  0  0
M  END
>  <minimizedAffinity>
-2.14450264

$$$$
