
 OpenBabel09092210413D

 27 29  0  0  1  0  0  0  0  0999 V2000
    4.1200   -3.7400   -2.2470 N   0  0  0  0  0  0  0  0  0  0  0  0
    4.4500   -3.4260   -3.5480 C   0  0  2  0  0  3  0  0  0  0  0  0
    5.5740   -3.8470   -4.1370 N   0  0  0  0  0  0  0  0  0  0  0  0
    3.5720   -2.6030   -4.0620 N   0  0  0  0  0  2  0  0  0  0  0  0
    2.4970   -2.6380   -3.2180 C   0  0  0  0  0  0  0  0  0  0  0  0
    1.2170   -2.0550   -3.3420 C   0  0  0  0  0  3  0  0  0  0  0  0
    0.2260   -2.2880   -2.3700 C   0  0  0  0  0  3  0  0  0  0  0  0
    0.5790   -3.1190   -1.3140 C   0  0  0  0  0  0  0  0  0  0  0  0
    1.8600   -3.6570   -1.1340 C   0  0  0  0  0  0  0  0  0  0  0  0
    2.7990   -3.3950   -2.0900 C   0  0  0  0  0  0  0  0  0  0  0  0
    1.8910   -4.5300    0.0470 C   0  0  0  0  0  2  0  0  0  0  0  0
    0.3620   -4.6810    0.2740 C   0  0  2  0  0  3  0  0  0  0  0  0
   -0.3120   -3.5320   -0.3410 O   0  0  0  0  0  0  0  0  0  0  0  0
    6.0780   -4.6870   -3.8710 H   0  0  0  0  0  0  0  0  0  0  0  0
    5.7090   -3.5950   -5.1170 H   0  0  0  0  0  0  0  0  0  0  0  0
    5.0490   -4.1100   -1.2030 C   0  0  0  0  0  2  0  0  0  0  0  0
    5.3430   -3.0720   -0.1010 C   0  0  0  0  0  2  0  0  0  0  0  0
    5.2760   -3.4640    1.3820 C   0  0  0  0  0  2  0  0  0  0  0  0
    5.4340   -1.7600    3.2310 C   0  0  0  0  0  1  0  0  0  0  0  0
    4.5450   -2.4850    2.2660 N   0  0  0  0  0  4  0  0  0  0  0  0
    3.7530   -1.5070    1.4220 C   0  0  0  0  0  1  0  0  0  0  0  0
    3.8190   -2.9890    2.7890 H   0  0  0  0  0  0  0  0  0  0  0  0
   -0.0480   -4.7380    1.7490 C   0  0  0  0  0  2  0  0  0  0  0  0
   -0.2530   -3.3300    2.3000 N   0  0  0  0  0  4  0  0  0  0  0  0
   -1.6180   -3.0950    2.8890 C   0  0  0  0  0  1  0  0  0  0  0  0
    0.8290   -2.9320    3.2680 C   0  0  0  0  0  1  0  0  0  0  0  0
   -0.1690   -2.6950    1.4870 H   0  0  0  0  0  0  0  0  0  0  0  0
  1 10  1  0  0  0  0
  1 16  1  0  0  0  0
  2  3  1  1  0  0  0
  2  1  1  0  0  0  0
  3 14  1  0  0  0  0
  4  2  1  0  0  0  0
  4  5  1  0  0  0  0
  5 10  1  0  0  0  0
  6  5  2  0  0  0  0
  6  7  1  0  0  0  0
  7  8  2  0  0  0  0
  8  9  1  0  0  0  0
  8 13  1  0  0  0  0
  9 11  1  0  0  0  0
 10  9  2  0  0  0  0
 11 12  1  0  0  0  0
 12 23  1  1  0  0  0
 13 12  1  0  0  0  0
 15  3  1  0  0  0  0
 16 17  1  0  0  0  0
 17 18  1  0  0  0  0
 18 20  1  0  0  0  0
 20 22  1  0  0  0  0
 20 19  1  0  0  0  0
 21 20  1  0  0  0  0
 23 24  1  0  0  0  0
 24 25  1  0  0  0  0
 24 26  1  0  0  0  0
 27 24  1  0  0  0  0
M  END
>  <minimizedAffinity>
-2.18437505

$$$$
