
 OpenBabel09092210413D

 27 29  0  0  1  0  0  0  0  0999 V2000
    4.0820   -6.1150   -1.1810 N   0  0  0  0  0  0  0  0  0  0  0  0
    5.1650   -6.7340   -1.7670 C   0  0  2  0  0  3  0  0  0  0  0  0
    5.5840   -7.9530   -1.4170 N   0  0  0  0  0  0  0  0  0  0  0  0
    5.7540   -5.9310   -2.6150 N   0  0  0  0  0  2  0  0  0  0  0  0
    4.8690   -4.9100   -2.8310 C   0  0  0  0  0  0  0  0  0  0  0  0
    4.9160   -3.8370   -3.7470 C   0  0  0  0  0  3  0  0  0  0  0  0
    3.8420   -2.9340   -3.8480 C   0  0  0  0  0  3  0  0  0  0  0  0
    2.7550   -3.1700   -3.0160 C   0  0  0  0  0  0  0  0  0  0  0  0
    2.7100   -4.1880   -2.0550 C   0  0  0  0  0  0  0  0  0  0  0  0
    3.7780   -5.0350   -1.9760 C   0  0  0  0  0  0  0  0  0  0  0  0
    1.4060   -4.2020   -1.3790 C   0  0  0  0  0  2  0  0  0  0  0  0
    0.6190   -3.2860   -2.3550 C   0  0  2  0  0  3  0  0  0  0  0  0
    1.5810   -2.4420   -3.0730 O   0  0  0  0  0  0  0  0  0  0  0  0
    4.9880   -8.6670   -1.0080 H   0  0  0  0  0  0  0  0  0  0  0  0
    6.3710   -8.3430   -1.9380 H   0  0  0  0  0  0  0  0  0  0  0  0
    3.5500   -6.3990    0.1320 C   0  0  0  0  0  2  0  0  0  0  0  0
    3.9790   -5.4820    1.2960 C   0  0  0  0  0  2  0  0  0  0  0  0
    5.4560   -5.1090    1.4950 C   0  0  0  0  0  2  0  0  0  0  0  0
    5.4870   -2.8590    0.3620 C   0  0  0  0  0  1  0  0  0  0  0  0
    5.7270   -3.6310    1.6240 N   0  0  0  0  0  4  0  0  0  0  0  0
    4.9270   -3.0500    2.7730 C   0  0  0  0  0  1  0  0  0  0  0  0
    6.7000   -3.4970    1.9220 H   0  0  0  0  0  0  0  0  0  0  0  0
   -0.3990   -2.3690   -1.6700 C   0  0  0  0  0  2  0  0  0  0  0  0
    0.2260   -1.0100   -1.3690 N   0  0  0  0  0  4  0  0  0  0  0  0
   -0.5890    0.1590   -1.8540 C   0  0  0  0  0  1  0  0  0  0  0  0
    0.5820   -0.8550    0.0850 C   0  0  0  0  0  1  0  0  0  0  0  0
    1.1170   -0.9880   -1.8940 H   0  0  0  0  0  0  0  0  0  0  0  0
  1 16  1  0  0  0  0
  2  3  1  1  0  0  0
  2  1  1  0  0  0  0
  3 14  1  0  0  0  0
  4  2  1  0  0  0  0
  5  4  1  0  0  0  0
  5 10  1  0  0  0  0
  6  5  2  0  0  0  0
  7  6  1  0  0  0  0
  7  8  2  0  0  0  0
  8  9  1  0  0  0  0
  9 10  2  0  0  0  0
  9 11  1  0  0  0  0
 10  1  1  0  0  0  0
 12 23  1  1  0  0  0
 12 11  1  0  0  0  0
 13  8  1  0  0  0  0
 13 12  1  0  0  0  0
 15  3  1  0  0  0  0
 16 17  1  0  0  0  0
 17 18  1  0  0  0  0
 18 20  1  0  0  0  0
 19 20  1  0  0  0  0
 20 22  1  0  0  0  0
 20 21  1  0  0  0  0
 23 24  1  0  0  0  0
 24 26  1  0  0  0  0
 25 24  1  0  0  0  0
 27 24  1  0  0  0  0
M  END
>  <minimizedAffinity>
-2.10895586

$$$$
