
 OpenBabel09092210413D

 27 29  0  0  1  0  0  0  0  0999 V2000
    1.0940   -2.6070   -2.0800 N   0  0  0  0  0  0  0  0  0  0  0  0
    0.8100   -1.9390   -3.2510 C   0  0  2  0  0  3  0  0  0  0  0  0
   -0.2810   -1.1840   -3.4130 N   0  0  0  0  0  0  0  0  0  0  0  0
    1.6910   -2.2270   -4.1740 N   0  0  0  0  0  2  0  0  0  0  0  0
    2.7320   -2.8210   -3.5170 C   0  0  0  0  0  0  0  0  0  0  0  0
    4.0040   -3.2160   -3.9840 C   0  0  0  0  0  3  0  0  0  0  0  0
    4.9610   -3.7470   -3.0990 C   0  0  0  0  0  3  0  0  0  0  0  0
    4.5830   -3.8430   -1.7660 C   0  0  0  0  0  0  0  0  0  0  0  0
    3.3070   -3.5190   -1.2870 C   0  0  0  0  0  0  0  0  0  0  0  0
    2.4010   -3.0210   -2.1800 C   0  0  0  0  0  0  0  0  0  0  0  0
    3.2470   -3.6820    0.1710 C   0  0  0  0  0  2  0  0  0  0  0  0
    4.7680   -3.7890    0.4640 C   0  0  2  0  0  3  0  0  0  0  0  0
    5.4430   -4.2390   -0.7580 O   0  0  0  0  0  0  0  0  0  0  0  0
   -0.7790   -0.7300   -2.6530 H   0  0  0  0  0  0  0  0  0  0  0  0
   -0.3830   -0.6960   -4.3030 H   0  0  0  0  0  0  0  0  0  0  0  0
    0.1330   -3.0090   -1.0780 C   0  0  0  0  0  2  0  0  0  0  0  0
   -0.2180   -1.9930    0.0290 C   0  0  0  0  0  2  0  0  0  0  0  0
    0.8020   -0.9330    0.4700 C   0  0  0  0  0  2  0  0  0  0  0  0
   -0.9310    0.6840   -0.3840 C   0  0  0  0  0  1  0  0  0  0  0  0
    0.5000    0.4710    0.0090 N   0  0  0  0  0  4  0  0  0  0  0  0
    0.9260    1.4720    1.0640 C   0  0  0  0  0  1  0  0  0  0  0  0
    1.1060    0.6950   -0.7890 H   0  0  0  0  0  0  0  0  0  0  0  0
    5.1210   -4.7680    1.5890 C   0  0  0  0  0  2  0  0  0  0  0  0
    5.3220   -4.0200    2.9030 N   0  0  0  0  0  4  0  0  0  0  0  0
    5.7540   -2.5880    2.7320 C   0  0  0  0  0  1  0  0  0  0  0  0
    4.1230   -4.1190    3.8060 C   0  0  0  0  0  1  0  0  0  0  0  0
    6.0970   -4.5060    3.3870 H   0  0  0  0  0  0  0  0  0  0  0  0
  1 16  1  0  0  0  0
  2  3  1  6  0  0  0
  2  1  1  0  0  0  0
  3 14  1  0  0  0  0
  4  5  1  0  0  0  0
  4  2  1  0  0  0  0
  5 10  1  0  0  0  0
  6  5  2  0  0  0  0
  6  7  1  0  0  0  0
  7  8  2  0  0  0  0
  8  9  1  0  0  0  0
  8 13  1  0  0  0  0
  9 11  1  0  0  0  0
 10  1  1  0  0  0  0
 10  9  2  0  0  0  0
 11 12  1  0  0  0  0
 12 23  1  1  0  0  0
 13 12  1  0  0  0  0
 15  3  1  0  0  0  0
 16 17  1  0  0  0  0
 17 18  1  0  0  0  0
 19 20  1  0  0  0  0
 20 18  1  0  0  0  0
 20 21  1  0  0  0  0
 22 20  1  0  0  0  0
 23 24  1  0  0  0  0
 24 27  1  0  0  0  0
 24 26  1  0  0  0  0
 25 24  1  0  0  0  0
M  END
>  <minimizedAffinity>
-2.10645819

$$$$
