
 OpenBabel09092210413D

 27 29  0  0  1  0  0  0  0  0999 V2000
    2.2790   -3.7170   -0.2910 N   0  0  0  0  0  0  0  0  0  0  0  0
    2.8930   -4.5510   -1.2010 C   0  0  2  0  0  3  0  0  0  0  0  0
    2.2180   -5.2650   -2.1050 N   0  0  0  0  0  0  0  0  0  0  0  0
    4.1820   -4.6040   -0.9820 N   0  0  0  0  0  2  0  0  0  0  0  0
    4.4570   -3.5580   -0.1460 C   0  0  0  0  0  0  0  0  0  0  0  0
    5.6930   -3.0540    0.3130 C   0  0  0  0  0  3  0  0  0  0  0  0
    5.7430   -1.9020    1.1200 C   0  0  0  0  0  3  0  0  0  0  0  0
    4.5260   -1.3040    1.4190 C   0  0  0  0  0  0  0  0  0  0  0  0
    3.2820   -1.8190    1.0300 C   0  0  0  0  0  0  0  0  0  0  0  0
    3.2750   -2.9470    0.2610 C   0  0  0  0  0  0  0  0  0  0  0  0
    2.1980   -0.9260    1.4580 C   0  0  0  0  0  2  0  0  0  0  0  0
    3.0440    0.3270    1.8130 C   0  0  2  0  0  3  0  0  0  0  0  0
    4.4140   -0.1090    2.1060 O   0  0  0  0  0  0  0  0  0  0  0  0
    1.3040   -5.0110   -2.4680 H   0  0  0  0  0  0  0  0  0  0  0  0
    2.7660   -5.8220   -2.7620 H   0  0  0  0  0  0  0  0  0  0  0  0
    0.9120   -3.8220    0.1660 C   0  0  0  0  0  2  0  0  0  0  0  0
    0.6140   -4.7960    1.3250 C   0  0  0  0  0  2  0  0  0  0  0  0
    1.0540   -4.4640    2.7590 C   0  0  0  0  0  2  0  0  0  0  0  0
    2.7440   -6.2710    2.2810 C   0  0  0  0  0  1  0  0  0  0  0  0
    2.2330   -5.2600    3.2620 N   0  0  0  0  0  4  0  0  0  0  0  0
    3.3420   -4.3280    3.7060 C   0  0  0  0  0  1  0  0  0  0  0  0
    1.9630   -5.7370    4.1300 H   0  0  0  0  0  0  0  0  0  0  0  0
    2.5260    1.1090    3.0250 C   0  0  0  0  0  2  0  0  0  0  0  0
    2.6800    2.6100    2.7960 N   0  0  0  0  0  4  0  0  0  0  0  0
    3.8300    3.2280    3.5450 C   0  0  0  0  0  1  0  0  0  0  0  0
    2.7350    2.9630    1.3340 C   0  0  0  0  0  1  0  0  0  0  0  0
    1.8170    3.0410    3.1700 H   0  0  0  0  0  0  0  0  0  0  0  0
  1 16  1  0  0  0  0
  1 10  1  0  0  0  0
  2  3  1  1  0  0  0
  2  4  1  0  0  0  0
  2  1  1  0  0  0  0
  4  5  1  0  0  0  0
  5 10  2  0  0  0  0
  5  6  1  0  0  0  0
  6  7  2  0  0  0  0
  7  8  1  0  0  0  0
  8 13  1  0  0  0  0
  9  8  2  0  0  0  0
  9 11  1  0  0  0  0
 10  9  1  0  0  0  0
 11 12  1  0  0  0  0
 12 13  1  0  0  0  0
 12 23  1  1  0  0  0
 14  3  1  0  0  0  0
 15  3  1  0  0  0  0
 16 17  1  0  0  0  0
 17 18  1  0  0  0  0
 18 20  1  0  0  0  0
 19 20  1  0  0  0  0
 20 21  1  0  0  0  0
 20 22  1  0  0  0  0
 24 23  1  0  0  0  0
 24 27  1  0  0  0  0
 24 25  1  0  0  0  0
 26 24  1  0  0  0  0
M  END
>  <minimizedAffinity>
-1.99035025

$$$$
