
 OpenBabel09092210413D

 27 29  0  0  1  0  0  0  0  0999 V2000
    1.5860   -2.1660    2.1560 N   0  0  0  0  0  0  0  0  0  0  0  0
    1.6030   -1.9900    3.5230 C   0  0  2  0  0  3  0  0  0  0  0  0
    0.5260   -2.1700    4.2930 N   0  0  0  0  0  0  0  0  0  0  0  0
    2.7670   -1.5430    3.9170 N   0  0  0  0  0  2  0  0  0  0  0  0
    3.6140   -1.7380    2.8620 C   0  0  0  0  0  0  0  0  0  0  0  0
    5.0120   -1.5660    2.7660 C   0  0  0  0  0  3  0  0  0  0  0  0
    5.6960   -1.9040    1.5840 C   0  0  0  0  0  3  0  0  0  0  0  0
    4.9260   -2.4160    0.5480 C   0  0  0  0  0  0  0  0  0  0  0  0
    3.5310   -2.5380    0.5940 C   0  0  0  0  0  0  0  0  0  0  0  0
    2.9010   -2.1840    1.7530 C   0  0  0  0  0  0  0  0  0  0  0  0
    3.0260   -3.1600   -0.6360 C   0  0  0  0  0  2  0  0  0  0  0  0
    4.3700   -3.6940   -1.2040 C   0  0  2  0  0  3  0  0  0  0  0  0
    5.4610   -2.8970   -0.6330 O   0  0  0  0  0  0  0  0  0  0  0  0
   -0.2510   -2.7800    4.0560 H   0  0  0  0  0  0  0  0  0  0  0  0
    0.6490   -2.0560    5.3000 H   0  0  0  0  0  0  0  0  0  0  0  0
    0.4210   -2.0840    1.3040 C   0  0  0  0  0  2  0  0  0  0  0  0
    0.2190   -0.7930    0.4850 C   0  0  0  0  0  2  0  0  0  0  0  0
    0.2720    0.5820    1.1660 C   0  0  0  0  0  2  0  0  0  0  0  0
    0.9310    2.8660    0.3300 C   0  0  0  0  0  1  0  0  0  0  0  0
    1.3840    1.4840    0.6930 N   0  0  0  0  0  4  0  0  0  0  0  0
    2.4940    1.5320    1.7240 C   0  0  0  0  0  1  0  0  0  0  0  0
    1.8360    1.0520   -0.1220 H   0  0  0  0  0  0  0  0  0  0  0  0
    4.4770   -3.6200   -2.7310 C   0  0  0  0  0  2  0  0  0  0  0  0
    4.7090   -5.0090   -3.3170 N   0  0  0  0  0  4  0  0  0  0  0  0
    5.4050   -5.9600   -2.3790 C   0  0  0  0  0  1  0  0  0  0  0  0
    3.4470   -5.6170   -3.8640 C   0  0  0  0  0  1  0  0  0  0  0  0
    5.3430   -4.8720   -4.1220 H   0  0  0  0  0  0  0  0  0  0  0  0
  1  2  1  0  0  0  0
  2  4  1  0  0  0  0
  2  3  1  6  0  0  0
  3 15  1  0  0  0  0
  5  4  1  0  0  0  0
  6  5  1  0  0  0  0
  7  6  2  0  0  0  0
  8  9  2  0  0  0  0
  8  7  1  0  0  0  0
  9 10  1  0  0  0  0
 10  1  1  0  0  0  0
 10  5  2  0  0  0  0
 11  9  1  0  0  0  0
 12 23  1  6  0  0  0
 12 11  1  0  0  0  0
 12 13  1  0  0  0  0
 13  8  1  0  0  0  0
 14  3  1  0  0  0  0
 16  1  1  0  0  0  0
 17 18  1  0  0  0  0
 17 16  1  0  0  0  0
 19 20  1  0  0  0  0
 20 18  1  0  0  0  0
 20 21  1  0  0  0  0
 22 20  1  0  0  0  0
 24 23  1  0  0  0  0
 24 25  1  0  0  0  0
 26 24  1  0  0  0  0
 27 24  1  0  0  0  0
M  END
>  <minimizedAffinity>
-2.12844348

$$$$
