
 OpenBabel09092210413D

 27 29  0  0  1  0  0  0  0  0999 V2000
    1.7050   -2.8560   -2.3250 N   0  0  0  0  0  0  0  0  0  0  0  0
    1.7430   -1.9500   -3.3630 C   0  0  2  0  0  3  0  0  0  0  0  0
    0.8180   -1.0020   -3.5370 N   0  0  0  0  0  0  0  0  0  0  0  0
    2.7340   -2.2180   -4.1740 N   0  0  0  0  0  2  0  0  0  0  0  0
    3.5400   -3.0900   -3.4960 C   0  0  0  0  0  0  0  0  0  0  0  0
    4.8100   -3.6090   -3.8270 C   0  0  0  0  0  3  0  0  0  0  0  0
    5.4980   -4.4460   -2.9290 C   0  0  0  0  0  3  0  0  0  0  0  0
    4.8650   -4.7120   -1.7220 C   0  0  0  0  0  0  0  0  0  0  0  0
    3.5790   -4.2620   -1.3950 C   0  0  0  0  0  0  0  0  0  0  0  0
    2.9370   -3.4650   -2.2980 C   0  0  0  0  0  0  0  0  0  0  0  0
    3.2220   -4.6700   -0.0300 C   0  0  0  0  0  2  0  0  0  0  0  0
    4.6310   -5.0880    0.4720 C   0  0  2  0  0  3  0  0  0  0  0  0
    5.4560   -5.4230   -0.6930 O   0  0  0  0  0  0  0  0  0  0  0  0
    0.2530   -0.6110   -2.7890 H   0  0  0  0  0  0  0  0  0  0  0  0
    0.9560   -0.3530   -4.3130 H   0  0  0  0  0  0  0  0  0  0  0  0
    0.5250   -3.2560   -1.5920 C   0  0  0  0  0  2  0  0  0  0  0  0
    0.1230   -2.4170   -0.3620 C   0  0  0  0  0  2  0  0  0  0  0  0
    1.1650   -1.5660    0.3790 C   0  0  0  0  0  2  0  0  0  0  0  0
   -0.4350    0.3330   -0.0440 C   0  0  0  0  0  1  0  0  0  0  0  0
    0.9760   -0.0750    0.2490 N   0  0  0  0  0  4  0  0  0  0  0  0
    1.4970    0.6280    1.4870 C   0  0  0  0  0  1  0  0  0  0  0  0
    1.5910    0.2730   -0.4960 H   0  0  0  0  0  0  0  0  0  0  0  0
    4.6250   -6.2980    1.4130 C   0  0  0  0  0  2  0  0  0  0  0  0
    3.4640   -7.2290    1.0770 N   0  0  0  0  0  4  0  0  0  0  0  0
    3.8630   -8.4380    0.2730 C   0  0  0  0  0  1  0  0  0  0  0  0
    2.6790   -7.6260    2.2970 C   0  0  0  0  0  1  0  0  0  0  0  0
    2.8240   -6.6760    0.4820 H   0  0  0  0  0  0  0  0  0  0  0  0
  1 10  1  0  0  0  0
  1 16  1  0  0  0  0
  2  3  1  6  0  0  0
  2  1  1  0  0  0  0
  3 14  1  0  0  0  0
  4  5  1  0  0  0  0
  4  2  1  0  0  0  0
  5 10  1  0  0  0  0
  6  5  2  0  0  0  0
  6  7  1  0  0  0  0
  7  8  2  0  0  0  0
  8  9  1  0  0  0  0
  8 13  1  0  0  0  0
  9 11  1  0  0  0  0
 10  9  2  0  0  0  0
 11 12  1  0  0  0  0
 12 23  1  1  0  0  0
 13 12  1  0  0  0  0
 15  3  1  0  0  0  0
 16 17  1  0  0  0  0
 17 18  1  0  0  0  0
 19 20  1  0  0  0  0
 20 18  1  0  0  0  0
 20 21  1  0  0  0  0
 22 20  1  0  0  0  0
 24 23  1  0  0  0  0
 24 26  1  0  0  0  0
 25 24  1  0  0  0  0
 27 24  1  0  0  0  0
M  END
>  <minimizedAffinity>
-2.20119977

$$$$
