
 OpenBabel09092210413D

 27 29  0  0  1  0  0  0  0  0999 V2000
    3.7930   -3.7250   -0.0150 N   0  0  0  0  0  0  0  0  0  0  0  0
    4.9280   -4.5040    0.0650 C   0  0  2  0  0  3  0  0  0  0  0  0
    5.3030   -5.1320    1.1830 N   0  0  0  0  0  0  0  0  0  0  0  0
    5.6040   -4.4520   -1.0540 N   0  0  0  0  0  2  0  0  0  0  0  0
    4.7510   -3.9090   -1.9750 C   0  0  0  0  0  0  0  0  0  0  0  0
    4.8950   -3.7400   -3.3690 C   0  0  0  0  0  3  0  0  0  0  0  0
    3.8410   -3.2190   -4.1410 C   0  0  0  0  0  3  0  0  0  0  0  0
    2.6740   -2.9000   -3.4590 C   0  0  0  0  0  0  0  0  0  0  0  0
    2.5260   -2.9970   -2.0690 C   0  0  0  0  0  0  0  0  0  0  0  0
    3.5770   -3.4930   -1.3520 C   0  0  0  0  0  0  0  0  0  0  0  0
    1.1610   -2.6350   -1.6690 C   0  0  0  0  0  2  0  0  0  0  0  0
    0.4820   -2.6790   -3.0650 C   0  0  2  0  0  3  0  0  0  0  0  0
    1.5150   -2.4830   -4.0880 O   0  0  0  0  0  0  0  0  0  0  0  0
    4.6650   -5.4170    1.9200 H   0  0  0  0  0  0  0  0  0  0  0  0
    6.1370   -5.7180    1.1300 H   0  0  0  0  0  0  0  0  0  0  0  0
    3.1290   -3.0790    1.0940 C   0  0  0  0  0  3  0  0  0  0  0  0
    3.6410   -1.6900    1.5280 C   0  0  0  0  0  3  0  0  0  0  0  0
    2.7590   -0.7590    2.3740 C   0  0  0  0  0  2  0  0  0  0  0  0
    1.4130    1.0770    1.2930 C   0  0  0  0  0  1  0  0  0  0  0  0
    2.7200    0.6750    1.9090 N   0  0  0  0  0  4  0  0  0  0  0  0
    3.0900    1.6050    3.0470 C   0  0  0  0  0  1  0  0  0  0  0  0
    3.4740    0.8230    1.2280 H   0  0  0  0  0  0  0  0  0  0  0  0
   -0.5970   -1.6100   -3.2700 C   0  0  0  0  0  2  0  0  0  0  0  0
   -0.0380   -0.2230   -2.9650 N   0  0  0  0  0  4  0  0  0  0  0  0
    0.0130    0.6920   -4.1590 C   0  0  0  0  0  1  0  0  0  0  0  0
   -0.7410    0.4350   -1.8090 C   0  0  0  0  0  1  0  0  0  0  0  0
    0.9410   -0.3750   -2.6670 H   0  0  0  0  0  0  0  0  0  0  0  0
  1  2  1  0  0  0  0
  1 16  1  0  0  0  0
  2  3  1  1  0  0  0
  3 14  1  0  0  0  0
  4  2  1  0  0  0  0
  5 10  1  0  0  0  0
  5  4  1  0  0  0  0
  6  5  2  0  0  0  0
  7  8  2  0  0  0  0
  7  6  1  0  0  0  0
  8  9  1  0  0  0  0
  9 11  1  0  0  0  0
  9 10  2  0  0  0  0
 10  1  1  0  0  0  0
 12 23  1  1  0  0  0
 12 11  1  0  0  0  0
 13  8  1  0  0  0  0
 13 12  1  0  0  0  0
 15  3  1  0  0  0  0
 16 17  2  0  0  0  0
 17 18  1  0  0  0  0
 19 20  1  0  0  0  0
 20 18  1  0  0  0  0
 20 21  1  0  0  0  0
 22 20  1  0  0  0  0
 23 24  1  0  0  0  0
 24 27  1  0  0  0  0
 24 26  1  0  0  0  0
 25 24  1  0  0  0  0
M  END
>  <minimizedAffinity>
-2.01496363

$$$$
