
 OpenBabel09092210413D

 27 29  0  0  1  0  0  0  0  0999 V2000
    2.3570   -3.7470   -0.5260 N   0  0  0  0  0  0  0  0  0  0  0  0
    3.0150   -4.5580   -1.4250 C   0  0  2  0  0  3  0  0  0  0  0  0
    2.3880   -5.2200   -2.4030 N   0  0  0  0  0  0  0  0  0  0  0  0
    4.2840   -4.6510   -1.1220 N   0  0  0  0  0  2  0  0  0  0  0  0
    4.5240   -3.6460   -0.2270 C   0  0  0  0  0  0  0  0  0  0  0  0
    5.7360   -3.1910    0.3350 C   0  0  0  0  0  3  0  0  0  0  0  0
    5.7540   -2.0740    1.1910 C   0  0  0  0  0  3  0  0  0  0  0  0
    4.5320   -1.4590    1.4310 C   0  0  0  0  0  0  0  0  0  0  0  0
    3.3070   -1.9280    0.9380 C   0  0  0  0  0  0  0  0  0  0  0  0
    3.3290   -3.0230    0.1240 C   0  0  0  0  0  0  0  0  0  0  0  0
    2.2160   -1.0270    1.3280 C   0  0  0  0  0  2  0  0  0  0  0  0
    3.0610    0.1900    1.7910 C   0  0  2  0  0  3  0  0  0  0  0  0
    4.3990   -0.2890    2.1580 O   0  0  0  0  0  0  0  0  0  0  0  0
    1.5070   -4.9290   -2.8150 H   0  0  0  0  0  0  0  0  0  0  0  0
    2.9680   -5.7630   -3.0440 H   0  0  0  0  0  0  0  0  0  0  0  0
    0.9600   -3.8370   -0.1670 C   0  0  0  0  0  3  0  0  0  0  0  0
   -0.0330   -2.9150   -0.9040 C   0  0  0  0  0  3  0  0  0  0  0  0
    0.4090   -2.1210   -2.1420 C   0  0  0  0  0  2  0  0  0  0  0  0
   -0.5110   -0.0860   -3.3100 C   0  0  0  0  0  1  0  0  0  0  0  0
    0.1370   -0.6390   -2.0770 N   0  0  0  0  0  4  0  0  0  0  0  0
   -0.6790   -0.3100   -0.8430 C   0  0  0  0  0  1  0  0  0  0  0  0
    1.0240   -0.1470   -1.9120 H   0  0  0  0  0  0  0  0  0  0  0  0
    2.4780    0.9350    2.9960 C   0  0  0  0  0  2  0  0  0  0  0  0
    3.5610    1.7580    3.6890 N   0  0  0  0  0  4  0  0  0  0  0  0
    3.6210    3.1930    3.2390 C   0  0  0  0  0  1  0  0  0  0  0  0
    3.4780    1.6640    5.1890 C   0  0  0  0  0  1  0  0  0  0  0  0
    4.4600    1.3250    3.4170 H   0  0  0  0  0  0  0  0  0  0  0  0
  1 16  1  0  0  0  0
  1 10  1  0  0  0  0
  2  3  1  1  0  0  0
  2  4  1  0  0  0  0
  2  1  1  0  0  0  0
  4  5  1  0  0  0  0
  5 10  2  0  0  0  0
  5  6  1  0  0  0  0
  6  7  2  0  0  0  0
  7  8  1  0  0  0  0
  8 13  1  0  0  0  0
  9 11  1  0  0  0  0
  9  8  2  0  0  0  0
 10  9  1  0  0  0  0
 11 12  1  0  0  0  0
 12 13  1  0  0  0  0
 12 23  1  1  0  0  0
 14  3  1  0  0  0  0
 15  3  1  0  0  0  0
 17 16  2  0  0  0  0
 18 20  1  0  0  0  0
 18 17  1  0  0  0  0
 19 20  1  0  0  0  0
 20 22  1  0  0  0  0
 20 21  1  0  0  0  0
 23 24  1  0  0  0  0
 24 26  1  0  0  0  0
 25 24  1  0  0  0  0
 27 24  1  0  0  0  0
M  END
>  <minimizedAffinity>
-2.08939695

$$$$
