
 OpenBabel09092210413D

 27 29  0  0  1  0  0  0  0  0999 V2000
    2.5290   -3.4870    3.1570 N   0  0  0  0  0  0  0  0  0  0  0  0
    2.7460   -2.9260    4.3970 C   0  0  2  0  0  3  0  0  0  0  0  0
    2.0980   -3.3170    5.4970 N   0  0  0  0  0  0  0  0  0  0  0  0
    3.5810   -1.9220    4.3100 N   0  0  0  0  0  2  0  0  0  0  0  0
    4.1640   -2.0340    3.0780 C   0  0  0  0  0  0  0  0  0  0  0  0
    5.2290   -1.3090    2.5010 C   0  0  0  0  0  3  0  0  0  0  0  0
    5.7200   -1.6500    1.2270 C   0  0  0  0  0  3  0  0  0  0  0  0
    5.1110   -2.7280    0.5970 C   0  0  0  0  0  0  0  0  0  0  0  0
    4.0120   -3.4230    1.1200 C   0  0  0  0  0  0  0  0  0  0  0  0
    3.5540   -3.0520    2.3510 C   0  0  0  0  0  0  0  0  0  0  0  0
    3.6400   -4.5360    0.2380 C   0  0  0  0  0  2  0  0  0  0  0  0
    4.9130   -4.5750   -0.6510 C   0  0  2  0  0  3  0  0  0  0  0  0
    5.5500   -3.2540   -0.6040 O   0  0  0  0  0  0  0  0  0  0  0  0
    1.7020   -4.2440    5.6280 H   0  0  0  0  0  0  0  0  0  0  0  0
    2.3580   -2.8680    6.3760 H   0  0  0  0  0  0  0  0  0  0  0  0
    1.3300   -4.1760    2.7360 C   0  0  0  0  0  2  0  0  0  0  0  0
    0.3820   -3.4420    1.7650 C   0  0  0  0  0  2  0  0  0  0  0  0
    0.0390   -1.9600    1.9780 C   0  0  0  0  0  2  0  0  0  0  0  0
    1.5890   -0.0770    1.3480 C   0  0  0  0  0  1  0  0  0  0  0  0
    0.5280   -1.0330    0.8940 N   0  0  0  0  0  4  0  0  0  0  0  0
    0.9980   -1.8310   -0.3060 C   0  0  0  0  0  1  0  0  0  0  0  0
   -0.2700   -0.5020    0.5270 H   0  0  0  0  0  0  0  0  0  0  0  0
    4.6410   -4.9180   -2.1190 C   0  0  0  0  0  2  0  0  0  0  0  0
    4.5470   -3.6450   -2.9550 N   0  0  0  0  0  4  0  0  0  0  0  0
    5.4350   -3.6460   -4.1710 C   0  0  0  0  0  1  0  0  0  0  0  0
    3.1280   -3.3050   -3.3220 C   0  0  0  0  0  1  0  0  0  0  0  0
    4.8850   -2.8820   -2.3440 H   0  0  0  0  0  0  0  0  0  0  0  0
  1  2  1  0  0  0  0
  2  3  1  6  0  0  0
  3 14  1  0  0  0  0
  3 15  1  0  0  0  0
  4  2  1  0  0  0  0
  5  4  1  0  0  0  0
  6  5  1  0  0  0  0
  7  6  2  0  0  0  0
  8  9  2  0  0  0  0
  8  7  1  0  0  0  0
  9 10  1  0  0  0  0
 10  5  2  0  0  0  0
 10  1  1  0  0  0  0
 11  9  1  0  0  0  0
 12 23  1  6  0  0  0
 12 13  1  0  0  0  0
 12 11  1  0  0  0  0
 13  8  1  0  0  0  0
 16  1  1  0  0  0  0
 17 18  1  0  0  0  0
 17 16  1  0  0  0  0
 20 19  1  0  0  0  0
 20 18  1  0  0  0  0
 21 20  1  0  0  0  0
 22 20  1  0  0  0  0
 24 27  1  0  0  0  0
 24 23  1  0  0  0  0
 25 24  1  0  0  0  0
 26 24  1  0  0  0  0
M  END
>  <minimizedAffinity>
-2.01136327

$$$$
