
 OpenBabel09082221313D

 27 29  0  0  1  0  0  0  0  0999 V2000
    1.7050   -2.8560   -2.3250 N   0  0  0  0  0  0  0  0  0  0  0  0
    1.7430   -1.9500   -3.3630 C   0  0  2  0  0  3  0  0  0  0  0  0
    0.8180   -1.0020   -3.5370 N   0  0  0  0  0  0  0  0  0  0  0  0
    2.7340   -2.2180   -4.1740 N   0  0  0  0  0  2  0  0  0  0  0  0
    3.5400   -3.0900   -3.4960 C   0  0  0  0  0  0  0  0  0  0  0  0
    4.8100   -3.6090   -3.8270 C   0  0  0  0  0  3  0  0  0  0  0  0
    5.4980   -4.4460   -2.9290 C   0  0  0  0  0  3  0  0  0  0  0  0
    4.8650   -4.7120   -1.7220 C   0  0  0  0  0  0  0  0  0  0  0  0
    3.5790   -4.2620   -1.3950 C   0  0  0  0  0  0  0  0  0  0  0  0
    2.9370   -3.4650   -2.2980 C   0  0  0  0  0  0  0  0  0  0  0  0
    3.2220   -4.6700   -0.0300 C   0  0  0  0  0  2  0  0  0  0  0  0
    4.6310   -5.0880    0.4720 C   0  0  2  0  0  3  0  0  0  0  0  0
    5.4560   -5.4230   -0.6930 O   0  0  0  0  0  0  0  0  0  0  0  0
    0.2530   -0.6110   -2.7890 H   0  0  0  0  0  0  0  0  0  0  0  0
    0.9560   -0.3530   -4.3130 H   0  0  0  0  0  0  0  0  0  0  0  0
    0.5250   -3.2560   -1.5920 C   0  0  0  0  0  2  0  0  0  0  0  0
    0.1230   -2.4170   -0.3620 C   0  0  0  0  0  2  0  0  0  0  0  0
    1.1650   -1.5660    0.3790 C   0  0  0  0  0  2  0  0  0  0  0  0
   -0.4350    0.3330   -0.0440 C   0  0  0  0  0  1  0  0  0  0  0  0
    0.9760   -0.0750    0.2490 N   0  0  0  0  0  4  0  0  0  0  0  0
    1.4970    0.6280    1.4870 C   0  0  0  0  0  1  0  0  0  0  0  0
    1.5910    0.2730   -0.4960 H   0  0  0  0  0  0  0  0  0  0  0  0
    4.6250   -6.2980    1.4130 C   0  0  0  0  0  2  0  0  0  0  0  0
    3.4640   -7.2290    1.0770 N   0  0  0  0  0  4  0  0  0  0  0  0
    3.8630   -8.4380    0.2730 C   0  0  0  0  0  1  0  0  0  0  0  0
    2.6790   -7.6260    2.2970 C   0  0  0  0  0  1  0  0  0  0  0  0
    2.8240   -6.6760    0.4820 H   0  0  0  0  0  0  0  0  0  0  0  0
  1 10  1  0  0  0  0
  1 16  1  0  0  0  0
  2  3  1  6  0  0  0
  2  1  1  0  0  0  0
  3 14  1  0  0  0  0
  4  5  1  0  0  0  0
  4  2  1  0  0  0  0
  5 10  1  0  0  0  0
  6  5  2  0  0  0  0
  6  7  1  0  0  0  0
  7  8  2  0  0  0  0
  8  9  1  0  0  0  0
  8 13  1  0  0  0  0
  9 11  1  0  0  0  0
 10  9  2  0  0  0  0
 11 12  1  0  0  0  0
 12 23  1  1  0  0  0
 13 12  1  0  0  0  0
 15  3  1  0  0  0  0
 16 17  1  0  0  0  0
 17 18  1  0  0  0  0
 19 20  1  0  0  0  0
 20 18  1  0  0  0  0
 20 21  1  0  0  0  0
 22 20  1  0  0  0  0
 24 23  1  0  0  0  0
 24 26  1  0  0  0  0
 25 24  1  0  0  0  0
 27 24  1  0  0  0  0
M  END
>  <minimizedAffinity>
-2.20119977

$$$$

 OpenBabel09082221313D

 27 29  0  0  1  0  0  0  0  0999 V2000
    2.2160   -3.7240   -0.4360 N   0  0  0  0  0  0  0  0  0  0  0  0
    2.7990   -4.5820   -1.3450 C   0  0  2  0  0  3  0  0  0  0  0  0
    2.1060   -5.2240   -2.2890 N   0  0  0  0  0  0  0  0  0  0  0  0
    4.0720   -4.7360   -1.0840 N   0  0  0  0  0  2  0  0  0  0  0  0
    4.3940   -3.7310   -0.2140 C   0  0  0  0  0  0  0  0  0  0  0  0
    5.6470   -3.3300    0.2980 C   0  0  0  0  0  3  0  0  0  0  0  0
    5.7530   -2.2040    1.1340 C   0  0  0  0  0  3  0  0  0  0  0  0
    4.5730   -1.5230    1.4060 C   0  0  0  0  0  0  0  0  0  0  0  0
    3.3090   -1.9350    0.9640 C   0  0  0  0  0  0  0  0  0  0  0  0
    3.2460   -3.0420    0.1670 C   0  0  0  0  0  0  0  0  0  0  0  0
    2.2790   -0.9740    1.3770 C   0  0  0  0  0  2  0  0  0  0  0  0
    3.2020    0.2050    1.7900 C   0  0  2  0  0  3  0  0  0  0  0  0
    4.5250   -0.3380    2.1180 O   0  0  0  0  0  0  0  0  0  0  0  0
    1.2260   -4.8940   -2.6750 H   0  0  0  0  0  0  0  0  0  0  0  0
    2.6340   -5.8050   -2.9400 H   0  0  0  0  0  0  0  0  0  0  0  0
    0.8300   -3.7370   -0.0280 C   0  0  0  0  0  2  0  0  0  0  0  0
   -0.1690   -2.8920   -0.8460 C   0  0  0  0  0  2  0  0  0  0  0  0
    0.3170   -1.6960   -1.6790 C   0  0  0  0  0  2  0  0  0  0  0  0
    1.5950   -1.9750   -3.8320 C   0  0  0  0  0  1  0  0  0  0  0  0
    0.2520   -1.8950   -3.1720 N   0  0  0  0  0  4  0  0  0  0  0  0
   -0.5860   -3.1130   -3.5030 C   0  0  0  0  0  1  0  0  0  0  0  0
   -0.2820   -1.1210   -3.5860 H   0  0  0  0  0  0  0  0  0  0  0  0
    2.7010    0.9970    3.0020 C   0  0  0  0  0  2  0  0  0  0  0  0
    2.7080    2.4930    2.7010 N   0  0  0  0  0  4  0  0  0  0  0  0
    3.7880    3.2560    3.4210 C   0  0  0  0  0  1  0  0  0  0  0  0
    2.7360    2.7790    1.2240 C   0  0  0  0  0  1  0  0  0  0  0  0
    1.8050    2.8540    3.0550 H   0  0  0  0  0  0  0  0  0  0  0  0
  1 16  1  0  0  0  0
  1 10  1  0  0  0  0
  2  3  1  1  0  0  0
  2  4  1  0  0  0  0
  2  1  1  0  0  0  0
  4  5  1  0  0  0  0
  5 10  2  0  0  0  0
  5  6  1  0  0  0  0
  6  7  2  0  0  0  0
  7  8  1  0  0  0  0
  8 13  1  0  0  0  0
  9 11  1  0  0  0  0
  9  8  2  0  0  0  0
 10  9  1  0  0  0  0
 11 12  1  0  0  0  0
 12 13  1  0  0  0  0
 12 23  1  1  0  0  0
 14  3  1  0  0  0  0
 15  3  1  0  0  0  0
 17 16  1  0  0  0  0
 18 17  1  0  0  0  0
 19 20  1  0  0  0  0
 20 18  1  0  0  0  0
 21 20  1  0  0  0  0
 22 20  1  0  0  0  0
 24 23  1  0  0  0  0
 24 27  1  0  0  0  0
 24 25  1  0  0  0  0
 26 24  1  0  0  0  0
M  END
>  <minimizedAffinity>
-2.18585062

$$$$

 OpenBabel09082221313D

 27 29  0  0  1  0  0  0  0  0999 V2000
    3.3000   -0.6860    2.6520 N   0  0  0  0  0  0  0  0  0  0  0  0
    4.4340   -0.4990    3.4130 C   0  0  2  0  0  3  0  0  0  0  0  0
    4.4140    0.0620    4.6250 N   0  0  0  0  0  0  0  0  0  0  0  0
    5.5020   -0.8540    2.7450 N   0  0  0  0  0  2  0  0  0  0  0  0
    5.0460   -1.5780    1.6780 C   0  0  0  0  0  0  0  0  0  0  0  0
    5.7530   -2.3140    0.7030 C   0  0  0  0  0  3  0  0  0  0  0  0
    5.0630   -3.0560   -0.2740 C   0  0  0  0  0  3  0  0  0  0  0  0
    3.6760   -3.0240   -0.2100 C   0  0  0  0  0  0  0  0  0  0  0  0
    2.9510   -2.2510    0.7070 C   0  0  0  0  0  0  0  0  0  0  0  0
    3.6560   -1.5330    1.6290 C   0  0  0  0  0  0  0  0  0  0  0  0
    1.5100   -2.4790    0.5460 C   0  0  0  0  0  2  0  0  0  0  0  0
    1.5650   -3.7560   -0.3370 C   0  0  2  0  0  3  0  0  0  0  0  0
    2.8590   -3.7840   -1.0260 O   0  0  0  0  0  0  0  0  0  0  0  0
    3.6080    0.0560    5.2440 H   0  0  0  0  0  0  0  0  0  0  0  0
    5.3010    0.1190    5.1270 H   0  0  0  0  0  0  0  0  0  0  0  0
    2.0700    0.0640    2.7660 C   0  0  0  0  0  2  0  0  0  0  0  0
    2.0690    1.5240    2.2690 C   0  0  0  0  0  2  0  0  0  0  0  0
    1.2000    1.9420    1.0730 C   0  0  0  0  0  2  0  0  0  0  0  0
    0.9780    3.9810   -0.3910 C   0  0  0  0  0  1  0  0  0  0  0  0
    1.8690    2.8800    0.0990 N   0  0  0  0  0  4  0  0  0  0  0  0
    3.1410    3.4420    0.7020 C   0  0  0  0  0  1  0  0  0  0  0  0
    2.2080    2.3370   -0.7040 H   0  0  0  0  0  0  0  0  0  0  0  0
    0.4610   -3.8310   -1.3970 C   0  0  0  0  0  2  0  0  0  0  0  0
    0.0320   -2.4290   -1.8210 N   0  0  0  0  0  4  0  0  0  0  0  0
    0.6710   -1.9540   -3.0980 C   0  0  0  0  0  1  0  0  0  0  0  0
   -1.4640   -2.2820   -1.8760 C   0  0  0  0  0  1  0  0  0  0  0  0
    0.3630   -1.7960   -1.0720 H   0  0  0  0  0  0  0  0  0  0  0  0
  1 16  1  0  0  0  0
  1  2  1  0  0  0  0
  2  3  1  6  0  0  0
  3 15  1  0  0  0  0
  3 14  1  0  0  0  0
  4  2  1  0  0  0  0
  5  4  1  0  0  0  0
  6  5  2  0  0  0  0
  7  8  2  0  0  0  0
  7  6  1  0  0  0  0
  8  9  1  0  0  0  0
  9 10  2  0  0  0  0
 10  5  1  0  0  0  0
 10  1  1  0  0  0  0
 11  9  1  0  0  0  0
 12 23  1  6  0  0  0
 12 11  1  0  0  0  0
 13 12  1  0  0  0  0
 13  8  1  0  0  0  0
 17 16  1  0  0  0  0
 18 17  1  0  0  0  0
 19 20  1  0  0  0  0
 20 21  1  0  0  0  0
 20 18  1  0  0  0  0
 22 20  1  0  0  0  0
 24 23  1  0  0  0  0
 24 27  1  0  0  0  0
 25 24  1  0  0  0  0
 26 24  1  0  0  0  0
M  END
>  <minimizedAffinity>
-2.1793592

$$$$

 OpenBabel09082221313D

 27 29  0  0  1  0  0  0  0  0999 V2000
    1.5860   -2.1660    2.1560 N   0  0  0  0  0  0  0  0  0  0  0  0
    1.6030   -1.9900    3.5230 C   0  0  2  0  0  3  0  0  0  0  0  0
    0.5260   -2.1700    4.2930 N   0  0  0  0  0  0  0  0  0  0  0  0
    2.7670   -1.5430    3.9170 N   0  0  0  0  0  2  0  0  0  0  0  0
    3.6140   -1.7380    2.8620 C   0  0  0  0  0  0  0  0  0  0  0  0
    5.0120   -1.5660    2.7660 C   0  0  0  0  0  3  0  0  0  0  0  0
    5.6960   -1.9040    1.5840 C   0  0  0  0  0  3  0  0  0  0  0  0
    4.9260   -2.4160    0.5480 C   0  0  0  0  0  0  0  0  0  0  0  0
    3.5310   -2.5380    0.5940 C   0  0  0  0  0  0  0  0  0  0  0  0
    2.9010   -2.1840    1.7530 C   0  0  0  0  0  0  0  0  0  0  0  0
    3.0260   -3.1600   -0.6360 C   0  0  0  0  0  2  0  0  0  0  0  0
    4.3700   -3.6940   -1.2040 C   0  0  2  0  0  3  0  0  0  0  0  0
    5.4610   -2.8970   -0.6330 O   0  0  0  0  0  0  0  0  0  0  0  0
   -0.2510   -2.7800    4.0560 H   0  0  0  0  0  0  0  0  0  0  0  0
    0.6490   -2.0560    5.3000 H   0  0  0  0  0  0  0  0  0  0  0  0
    0.4210   -2.0840    1.3040 C   0  0  0  0  0  2  0  0  0  0  0  0
    0.2190   -0.7930    0.4850 C   0  0  0  0  0  2  0  0  0  0  0  0
    0.2720    0.5820    1.1660 C   0  0  0  0  0  2  0  0  0  0  0  0
    0.9310    2.8660    0.3300 C   0  0  0  0  0  1  0  0  0  0  0  0
    1.3840    1.4840    0.6930 N   0  0  0  0  0  4  0  0  0  0  0  0
    2.4940    1.5320    1.7240 C   0  0  0  0  0  1  0  0  0  0  0  0
    1.8360    1.0520   -0.1220 H   0  0  0  0  0  0  0  0  0  0  0  0
    4.4770   -3.6200   -2.7310 C   0  0  0  0  0  2  0  0  0  0  0  0
    4.7090   -5.0090   -3.3170 N   0  0  0  0  0  4  0  0  0  0  0  0
    5.4050   -5.9600   -2.3790 C   0  0  0  0  0  1  0  0  0  0  0  0
    3.4470   -5.6170   -3.8640 C   0  0  0  0  0  1  0  0  0  0  0  0
    5.3430   -4.8720   -4.1220 H   0  0  0  0  0  0  0  0  0  0  0  0
  1  2  1  0  0  0  0
  2  4  1  0  0  0  0
  2  3  1  6  0  0  0
  3 15  1  0  0  0  0
  5  4  1  0  0  0  0
  6  5  1  0  0  0  0
  7  6  2  0  0  0  0
  8  9  2  0  0  0  0
  8  7  1  0  0  0  0
  9 10  1  0  0  0  0
 10  1  1  0  0  0  0
 10  5  2  0  0  0  0
 11  9  1  0  0  0  0
 12 23  1  6  0  0  0
 12 11  1  0  0  0  0
 12 13  1  0  0  0  0
 13  8  1  0  0  0  0
 14  3  1  0  0  0  0
 16  1  1  0  0  0  0
 17 18  1  0  0  0  0
 17 16  1  0  0  0  0
 19 20  1  0  0  0  0
 20 18  1  0  0  0  0
 20 21  1  0  0  0  0
 22 20  1  0  0  0  0
 24 23  1  0  0  0  0
 24 25  1  0  0  0  0
 26 24  1  0  0  0  0
 27 24  1  0  0  0  0
M  END
>  <minimizedAffinity>
-2.12844348

$$$$

 OpenBabel09082221313D

 27 29  0  0  1  0  0  0  0  0999 V2000
    5.1220   -4.4670   -2.1640 N   0  0  0  0  0  0  0  0  0  0  0  0
    5.5520   -5.6060   -2.8090 C   0  0  2  0  0  3  0  0  0  0  0  0
    5.7530   -5.6640   -4.1290 N   0  0  0  0  0  0  0  0  0  0  0  0
    5.6350   -6.6090   -1.9730 N   0  0  0  0  0  2  0  0  0  0  0  0
    5.5790   -6.0520   -0.7250 C   0  0  0  0  0  0  0  0  0  0  0  0
    5.7540   -6.6390    0.5470 C   0  0  0  0  0  3  0  0  0  0  0  0
    5.7260   -5.8480    1.7110 C   0  0  0  0  0  3  0  0  0  0  0  0
    5.5310   -4.4850    1.5280 C   0  0  0  0  0  0  0  0  0  0  0  0
    5.2920   -3.8870    0.2840 C   0  0  0  0  0  0  0  0  0  0  0  0
    5.3110   -4.6900   -0.8200 C   0  0  0  0  0  0  0  0  0  0  0  0
    5.1790   -2.4300    0.4250 C   0  0  0  0  0  2  0  0  0  0  0  0
    5.7530   -2.2820    1.8600 C   0  0  2  0  0  3  0  0  0  0  0  0
    5.5890   -3.5630    2.5570 O   0  0  0  0  0  0  0  0  0  0  0  0
    5.9790   -4.8610   -4.7080 H   0  0  0  0  0  0  0  0  0  0  0  0
    6.1120   -6.5410   -4.5080 H   0  0  0  0  0  0  0  0  0  0  0  0
    4.3860   -3.3780   -2.7660 C   0  0  0  0  0  2  0  0  0  0  0  0
    2.8460   -3.4380   -2.7180 C   0  0  0  0  0  2  0  0  0  0  0  0
    2.0740   -4.4310   -3.5990 C   0  0  0  0  0  2  0  0  0  0  0  0
    1.7970   -5.8230   -1.5170 C   0  0  0  0  0  1  0  0  0  0  0  0
    1.9130   -5.8110   -3.0110 N   0  0  0  0  0  4  0  0  0  0  0  0
    0.7350   -6.5180   -3.6500 C   0  0  0  0  0  1  0  0  0  0  0  0
    2.7150   -6.3860   -3.2930 H   0  0  0  0  0  0  0  0  0  0  0  0
    5.0710   -1.1960    2.6990 C   0  0  0  0  0  2  0  0  0  0  0  0
    3.5800   -1.1330    2.3780 N   0  0  0  0  0  4  0  0  0  0  0  0
    2.6970   -1.6860    3.4650 C   0  0  0  0  0  1  0  0  0  0  0  0
    3.1400    0.2480    1.9750 C   0  0  0  0  0  1  0  0  0  0  0  0
    3.4450   -1.7390    1.5510 H   0  0  0  0  0  0  0  0  0  0  0  0
  1 10  1  0  0  0  0
  2  3  1  6  0  0  0
  2  1  1  0  0  0  0
  2  4  1  0  0  0  0
  4  5  1  0  0  0  0
  5  6  1  0  0  0  0
  6  7  2  0  0  0  0
  8  7  1  0  0  0  0
  8 13  1  0  0  0  0
  9 11  1  0  0  0  0
  9  8  2  0  0  0  0
 10  5  2  0  0  0  0
 10  9  1  0  0  0  0
 11 12  1  0  0  0  0
 12 13  1  0  0  0  0
 12 23  1  1  0  0  0
 14  3  1  0  0  0  0
 15  3  1  0  0  0  0
 16 17  1  0  0  0  0
 16  1  1  0  0  0  0
 18 20  1  0  0  0  0
 18 17  1  0  0  0  0
 20 19  1  0  0  0  0
 21 20  1  0  0  0  0
 22 20  1  0  0  0  0
 24 23  1  0  0  0  0
 24 25  1  0  0  0  0
 26 24  1  0  0  0  0
 27 24  1  0  0  0  0
M  END
>  <minimizedAffinity>
-2.11371493

$$$$

 OpenBabel09082221313D

 27 29  0  0  1  0  0  0  0  0999 V2000
    1.0940   -2.6070   -2.0800 N   0  0  0  0  0  0  0  0  0  0  0  0
    0.8100   -1.9390   -3.2510 C   0  0  2  0  0  3  0  0  0  0  0  0
   -0.2810   -1.1840   -3.4130 N   0  0  0  0  0  0  0  0  0  0  0  0
    1.6910   -2.2270   -4.1740 N   0  0  0  0  0  2  0  0  0  0  0  0
    2.7320   -2.8210   -3.5170 C   0  0  0  0  0  0  0  0  0  0  0  0
    4.0040   -3.2160   -3.9840 C   0  0  0  0  0  3  0  0  0  0  0  0
    4.9610   -3.7470   -3.0990 C   0  0  0  0  0  3  0  0  0  0  0  0
    4.5830   -3.8430   -1.7660 C   0  0  0  0  0  0  0  0  0  0  0  0
    3.3070   -3.5190   -1.2870 C   0  0  0  0  0  0  0  0  0  0  0  0
    2.4010   -3.0210   -2.1800 C   0  0  0  0  0  0  0  0  0  0  0  0
    3.2470   -3.6820    0.1710 C   0  0  0  0  0  2  0  0  0  0  0  0
    4.7680   -3.7890    0.4640 C   0  0  2  0  0  3  0  0  0  0  0  0
    5.4430   -4.2390   -0.7580 O   0  0  0  0  0  0  0  0  0  0  0  0
   -0.7790   -0.7300   -2.6530 H   0  0  0  0  0  0  0  0  0  0  0  0
   -0.3830   -0.6960   -4.3030 H   0  0  0  0  0  0  0  0  0  0  0  0
    0.1330   -3.0090   -1.0780 C   0  0  0  0  0  2  0  0  0  0  0  0
   -0.2180   -1.9930    0.0290 C   0  0  0  0  0  2  0  0  0  0  0  0
    0.8020   -0.9330    0.4700 C   0  0  0  0  0  2  0  0  0  0  0  0
   -0.9310    0.6840   -0.3840 C   0  0  0  0  0  1  0  0  0  0  0  0
    0.5000    0.4710    0.0090 N   0  0  0  0  0  4  0  0  0  0  0  0
    0.9260    1.4720    1.0640 C   0  0  0  0  0  1  0  0  0  0  0  0
    1.1060    0.6950   -0.7890 H   0  0  0  0  0  0  0  0  0  0  0  0
    5.1210   -4.7680    1.5890 C   0  0  0  0  0  2  0  0  0  0  0  0
    5.3220   -4.0200    2.9030 N   0  0  0  0  0  4  0  0  0  0  0  0
    5.7540   -2.5880    2.7320 C   0  0  0  0  0  1  0  0  0  0  0  0
    4.1230   -4.1190    3.8060 C   0  0  0  0  0  1  0  0  0  0  0  0
    6.0970   -4.5060    3.3870 H   0  0  0  0  0  0  0  0  0  0  0  0
  1 16  1  0  0  0  0
  2  3  1  6  0  0  0
  2  1  1  0  0  0  0
  3 14  1  0  0  0  0
  4  5  1  0  0  0  0
  4  2  1  0  0  0  0
  5 10  1  0  0  0  0
  6  5  2  0  0  0  0
  6  7  1  0  0  0  0
  7  8  2  0  0  0  0
  8  9  1  0  0  0  0
  8 13  1  0  0  0  0
  9 11  1  0  0  0  0
 10  1  1  0  0  0  0
 10  9  2  0  0  0  0
 11 12  1  0  0  0  0
 12 23  1  1  0  0  0
 13 12  1  0  0  0  0
 15  3  1  0  0  0  0
 16 17  1  0  0  0  0
 17 18  1  0  0  0  0
 19 20  1  0  0  0  0
 20 18  1  0  0  0  0
 20 21  1  0  0  0  0
 22 20  1  0  0  0  0
 23 24  1  0  0  0  0
 24 27  1  0  0  0  0
 24 26  1  0  0  0  0
 25 24  1  0  0  0  0
M  END
>  <minimizedAffinity>
-2.10645819

$$$$

 OpenBabel09082221313D

 27 29  0  0  1  0  0  0  0  0999 V2000
    2.3570   -3.7470   -0.5260 N   0  0  0  0  0  0  0  0  0  0  0  0
    3.0150   -4.5580   -1.4250 C   0  0  2  0  0  3  0  0  0  0  0  0
    2.3880   -5.2200   -2.4030 N   0  0  0  0  0  0  0  0  0  0  0  0
    4.2840   -4.6510   -1.1220 N   0  0  0  0  0  2  0  0  0  0  0  0
    4.5240   -3.6460   -0.2270 C   0  0  0  0  0  0  0  0  0  0  0  0
    5.7360   -3.1910    0.3350 C   0  0  0  0  0  3  0  0  0  0  0  0
    5.7540   -2.0740    1.1910 C   0  0  0  0  0  3  0  0  0  0  0  0
    4.5320   -1.4590    1.4310 C   0  0  0  0  0  0  0  0  0  0  0  0
    3.3070   -1.9280    0.9380 C   0  0  0  0  0  0  0  0  0  0  0  0
    3.3290   -3.0230    0.1240 C   0  0  0  0  0  0  0  0  0  0  0  0
    2.2160   -1.0270    1.3280 C   0  0  0  0  0  2  0  0  0  0  0  0
    3.0610    0.1900    1.7910 C   0  0  2  0  0  3  0  0  0  0  0  0
    4.3990   -0.2890    2.1580 O   0  0  0  0  0  0  0  0  0  0  0  0
    1.5070   -4.9290   -2.8150 H   0  0  0  0  0  0  0  0  0  0  0  0
    2.9680   -5.7630   -3.0440 H   0  0  0  0  0  0  0  0  0  0  0  0
    0.9600   -3.8370   -0.1670 C   0  0  0  0  0  3  0  0  0  0  0  0
   -0.0330   -2.9150   -0.9040 C   0  0  0  0  0  3  0  0  0  0  0  0
    0.4090   -2.1210   -2.1420 C   0  0  0  0  0  2  0  0  0  0  0  0
   -0.5110   -0.0860   -3.3100 C   0  0  0  0  0  1  0  0  0  0  0  0
    0.1370   -0.6390   -2.0770 N   0  0  0  0  0  4  0  0  0  0  0  0
   -0.6790   -0.3100   -0.8430 C   0  0  0  0  0  1  0  0  0  0  0  0
    1.0240   -0.1470   -1.9120 H   0  0  0  0  0  0  0  0  0  0  0  0
    2.4780    0.9350    2.9960 C   0  0  0  0  0  2  0  0  0  0  0  0
    3.5610    1.7580    3.6890 N   0  0  0  0  0  4  0  0  0  0  0  0
    3.6210    3.1930    3.2390 C   0  0  0  0  0  1  0  0  0  0  0  0
    3.4780    1.6640    5.1890 C   0  0  0  0  0  1  0  0  0  0  0  0
    4.4600    1.3250    3.4170 H   0  0  0  0  0  0  0  0  0  0  0  0
  1 16  1  0  0  0  0
  1 10  1  0  0  0  0
  2  3  1  1  0  0  0
  2  4  1  0  0  0  0
  2  1  1  0  0  0  0
  4  5  1  0  0  0  0
  5 10  2  0  0  0  0
  5  6  1  0  0  0  0
  6  7  2  0  0  0  0
  7  8  1  0  0  0  0
  8 13  1  0  0  0  0
  9 11  1  0  0  0  0
  9  8  2  0  0  0  0
 10  9  1  0  0  0  0
 11 12  1  0  0  0  0
 12 13  1  0  0  0  0
 12 23  1  1  0  0  0
 14  3  1  0  0  0  0
 15  3  1  0  0  0  0
 17 16  2  0  0  0  0
 18 20  1  0  0  0  0
 18 17  1  0  0  0  0
 19 20  1  0  0  0  0
 20 22  1  0  0  0  0
 20 21  1  0  0  0  0
 23 24  1  0  0  0  0
 24 26  1  0  0  0  0
 25 24  1  0  0  0  0
 27 24  1  0  0  0  0
M  END
>  <minimizedAffinity>
-2.08939695

$$$$

 OpenBabel09082221313D

 27 29  0  0  1  0  0  0  0  0999 V2000
    3.7930   -3.7250   -0.0150 N   0  0  0  0  0  0  0  0  0  0  0  0
    4.9280   -4.5040    0.0650 C   0  0  2  0  0  3  0  0  0  0  0  0
    5.3030   -5.1320    1.1830 N   0  0  0  0  0  0  0  0  0  0  0  0
    5.6040   -4.4520   -1.0540 N   0  0  0  0  0  2  0  0  0  0  0  0
    4.7510   -3.9090   -1.9750 C   0  0  0  0  0  0  0  0  0  0  0  0
    4.8950   -3.7400   -3.3690 C   0  0  0  0  0  3  0  0  0  0  0  0
    3.8410   -3.2190   -4.1410 C   0  0  0  0  0  3  0  0  0  0  0  0
    2.6740   -2.9000   -3.4590 C   0  0  0  0  0  0  0  0  0  0  0  0
    2.5260   -2.9970   -2.0690 C   0  0  0  0  0  0  0  0  0  0  0  0
    3.5770   -3.4930   -1.3520 C   0  0  0  0  0  0  0  0  0  0  0  0
    1.1610   -2.6350   -1.6690 C   0  0  0  0  0  2  0  0  0  0  0  0
    0.4820   -2.6790   -3.0650 C   0  0  2  0  0  3  0  0  0  0  0  0
    1.5150   -2.4830   -4.0880 O   0  0  0  0  0  0  0  0  0  0  0  0
    4.6650   -5.4170    1.9200 H   0  0  0  0  0  0  0  0  0  0  0  0
    6.1370   -5.7180    1.1300 H   0  0  0  0  0  0  0  0  0  0  0  0
    3.1290   -3.0790    1.0940 C   0  0  0  0  0  3  0  0  0  0  0  0
    3.6410   -1.6900    1.5280 C   0  0  0  0  0  3  0  0  0  0  0  0
    2.7590   -0.7590    2.3740 C   0  0  0  0  0  2  0  0  0  0  0  0
    1.4130    1.0770    1.2930 C   0  0  0  0  0  1  0  0  0  0  0  0
    2.7200    0.6750    1.9090 N   0  0  0  0  0  4  0  0  0  0  0  0
    3.0900    1.6050    3.0470 C   0  0  0  0  0  1  0  0  0  0  0  0
    3.4740    0.8230    1.2280 H   0  0  0  0  0  0  0  0  0  0  0  0
   -0.5970   -1.6100   -3.2700 C   0  0  0  0  0  2  0  0  0  0  0  0
   -0.0380   -0.2230   -2.9650 N   0  0  0  0  0  4  0  0  0  0  0  0
    0.0130    0.6920   -4.1590 C   0  0  0  0  0  1  0  0  0  0  0  0
   -0.7410    0.4350   -1.8090 C   0  0  0  0  0  1  0  0  0  0  0  0
    0.9410   -0.3750   -2.6670 H   0  0  0  0  0  0  0  0  0  0  0  0
  1  2  1  0  0  0  0
  1 16  1  0  0  0  0
  2  3  1  1  0  0  0
  3 14  1  0  0  0  0
  4  2  1  0  0  0  0
  5 10  1  0  0  0  0
  5  4  1  0  0  0  0
  6  5  2  0  0  0  0
  7  8  2  0  0  0  0
  7  6  1  0  0  0  0
  8  9  1  0  0  0  0
  9 11  1  0  0  0  0
  9 10  2  0  0  0  0
 10  1  1  0  0  0  0
 12 23  1  1  0  0  0
 12 11  1  0  0  0  0
 13  8  1  0  0  0  0
 13 12  1  0  0  0  0
 15  3  1  0  0  0  0
 16 17  2  0  0  0  0
 17 18  1  0  0  0  0
 19 20  1  0  0  0  0
 20 18  1  0  0  0  0
 20 21  1  0  0  0  0
 22 20  1  0  0  0  0
 23 24  1  0  0  0  0
 24 27  1  0  0  0  0
 24 26  1  0  0  0  0
 25 24  1  0  0  0  0
M  END
>  <minimizedAffinity>
-2.01496363

$$$$

 OpenBabel09082221313D

 27 29  0  0  1  0  0  0  0  0999 V2000
    2.5290   -3.4870    3.1570 N   0  0  0  0  0  0  0  0  0  0  0  0
    2.7460   -2.9260    4.3970 C   0  0  2  0  0  3  0  0  0  0  0  0
    2.0980   -3.3170    5.4970 N   0  0  0  0  0  0  0  0  0  0  0  0
    3.5810   -1.9220    4.3100 N   0  0  0  0  0  2  0  0  0  0  0  0
    4.1640   -2.0340    3.0780 C   0  0  0  0  0  0  0  0  0  0  0  0
    5.2290   -1.3090    2.5010 C   0  0  0  0  0  3  0  0  0  0  0  0
    5.7200   -1.6500    1.2270 C   0  0  0  0  0  3  0  0  0  0  0  0
    5.1110   -2.7280    0.5970 C   0  0  0  0  0  0  0  0  0  0  0  0
    4.0120   -3.4230    1.1200 C   0  0  0  0  0  0  0  0  0  0  0  0
    3.5540   -3.0520    2.3510 C   0  0  0  0  0  0  0  0  0  0  0  0
    3.6400   -4.5360    0.2380 C   0  0  0  0  0  2  0  0  0  0  0  0
    4.9130   -4.5750   -0.6510 C   0  0  2  0  0  3  0  0  0  0  0  0
    5.5500   -3.2540   -0.6040 O   0  0  0  0  0  0  0  0  0  0  0  0
    1.7020   -4.2440    5.6280 H   0  0  0  0  0  0  0  0  0  0  0  0
    2.3580   -2.8680    6.3760 H   0  0  0  0  0  0  0  0  0  0  0  0
    1.3300   -4.1760    2.7360 C   0  0  0  0  0  2  0  0  0  0  0  0
    0.3820   -3.4420    1.7650 C   0  0  0  0  0  2  0  0  0  0  0  0
    0.0390   -1.9600    1.9780 C   0  0  0  0  0  2  0  0  0  0  0  0
    1.5890   -0.0770    1.3480 C   0  0  0  0  0  1  0  0  0  0  0  0
    0.5280   -1.0330    0.8940 N   0  0  0  0  0  4  0  0  0  0  0  0
    0.9980   -1.8310   -0.3060 C   0  0  0  0  0  1  0  0  0  0  0  0
   -0.2700   -0.5020    0.5270 H   0  0  0  0  0  0  0  0  0  0  0  0
    4.6410   -4.9180   -2.1190 C   0  0  0  0  0  2  0  0  0  0  0  0
    4.5470   -3.6450   -2.9550 N   0  0  0  0  0  4  0  0  0  0  0  0
    5.4350   -3.6460   -4.1710 C   0  0  0  0  0  1  0  0  0  0  0  0
    3.1280   -3.3050   -3.3220 C   0  0  0  0  0  1  0  0  0  0  0  0
    4.8850   -2.8820   -2.3440 H   0  0  0  0  0  0  0  0  0  0  0  0
  1  2  1  0  0  0  0
  2  3  1  6  0  0  0
  3 14  1  0  0  0  0
  3 15  1  0  0  0  0
  4  2  1  0  0  0  0
  5  4  1  0  0  0  0
  6  5  1  0  0  0  0
  7  6  2  0  0  0  0
  8  9  2  0  0  0  0
  8  7  1  0  0  0  0
  9 10  1  0  0  0  0
 10  5  2  0  0  0  0
 10  1  1  0  0  0  0
 11  9  1  0  0  0  0
 12 23  1  6  0  0  0
 12 13  1  0  0  0  0
 12 11  1  0  0  0  0
 13  8  1  0  0  0  0
 16  1  1  0  0  0  0
 17 18  1  0  0  0  0
 17 16  1  0  0  0  0
 20 19  1  0  0  0  0
 20 18  1  0  0  0  0
 21 20  1  0  0  0  0
 22 20  1  0  0  0  0
 24 27  1  0  0  0  0
 24 23  1  0  0  0  0
 25 24  1  0  0  0  0
 26 24  1  0  0  0  0
M  END
>  <minimizedAffinity>
-2.01136327

$$$$

 OpenBabel09082221313D

 27 29  0  0  1  0  0  0  0  0999 V2000
    2.2790   -3.7170   -0.2910 N   0  0  0  0  0  0  0  0  0  0  0  0
    2.8930   -4.5510   -1.2010 C   0  0  2  0  0  3  0  0  0  0  0  0
    2.2180   -5.2650   -2.1050 N   0  0  0  0  0  0  0  0  0  0  0  0
    4.1820   -4.6040   -0.9820 N   0  0  0  0  0  2  0  0  0  0  0  0
    4.4570   -3.5580   -0.1460 C   0  0  0  0  0  0  0  0  0  0  0  0
    5.6930   -3.0540    0.3130 C   0  0  0  0  0  3  0  0  0  0  0  0
    5.7430   -1.9020    1.1200 C   0  0  0  0  0  3  0  0  0  0  0  0
    4.5260   -1.3040    1.4190 C   0  0  0  0  0  0  0  0  0  0  0  0
    3.2820   -1.8190    1.0300 C   0  0  0  0  0  0  0  0  0  0  0  0
    3.2750   -2.9470    0.2610 C   0  0  0  0  0  0  0  0  0  0  0  0
    2.1980   -0.9260    1.4580 C   0  0  0  0  0  2  0  0  0  0  0  0
    3.0440    0.3270    1.8130 C   0  0  2  0  0  3  0  0  0  0  0  0
    4.4140   -0.1090    2.1060 O   0  0  0  0  0  0  0  0  0  0  0  0
    1.3040   -5.0110   -2.4680 H   0  0  0  0  0  0  0  0  0  0  0  0
    2.7660   -5.8220   -2.7620 H   0  0  0  0  0  0  0  0  0  0  0  0
    0.9120   -3.8220    0.1660 C   0  0  0  0  0  2  0  0  0  0  0  0
    0.6140   -4.7960    1.3250 C   0  0  0  0  0  2  0  0  0  0  0  0
    1.0540   -4.4640    2.7590 C   0  0  0  0  0  2  0  0  0  0  0  0
    2.7440   -6.2710    2.2810 C   0  0  0  0  0  1  0  0  0  0  0  0
    2.2330   -5.2600    3.2620 N   0  0  0  0  0  4  0  0  0  0  0  0
    3.3420   -4.3280    3.7060 C   0  0  0  0  0  1  0  0  0  0  0  0
    1.9630   -5.7370    4.1300 H   0  0  0  0  0  0  0  0  0  0  0  0
    2.5260    1.1090    3.0250 C   0  0  0  0  0  2  0  0  0  0  0  0
    2.6800    2.6100    2.7960 N   0  0  0  0  0  4  0  0  0  0  0  0
    3.8300    3.2280    3.5450 C   0  0  0  0  0  1  0  0  0  0  0  0
    2.7350    2.9630    1.3340 C   0  0  0  0  0  1  0  0  0  0  0  0
    1.8170    3.0410    3.1700 H   0  0  0  0  0  0  0  0  0  0  0  0
  1 16  1  0  0  0  0
  1 10  1  0  0  0  0
  2  3  1  1  0  0  0
  2  4  1  0  0  0  0
  2  1  1  0  0  0  0
  4  5  1  0  0  0  0
  5 10  2  0  0  0  0
  5  6  1  0  0  0  0
  6  7  2  0  0  0  0
  7  8  1  0  0  0  0
  8 13  1  0  0  0  0
  9  8  2  0  0  0  0
  9 11  1  0  0  0  0
 10  9  1  0  0  0  0
 11 12  1  0  0  0  0
 12 13  1  0  0  0  0
 12 23  1  1  0  0  0
 14  3  1  0  0  0  0
 15  3  1  0  0  0  0
 16 17  1  0  0  0  0
 17 18  1  0  0  0  0
 18 20  1  0  0  0  0
 19 20  1  0  0  0  0
 20 21  1  0  0  0  0
 20 22  1  0  0  0  0
 24 23  1  0  0  0  0
 24 27  1  0  0  0  0
 24 25  1  0  0  0  0
 26 24  1  0  0  0  0
M  END
>  <minimizedAffinity>
-1.99035025

$$$$
