
 OpenBabel09092210413D

 27 29  0  0  1  0  0  0  0  0999 V2000
    5.1220   -4.4670   -2.1640 N   0  0  0  0  0  0  0  0  0  0  0  0
    5.5520   -5.6060   -2.8090 C   0  0  2  0  0  3  0  0  0  0  0  0
    5.7530   -5.6640   -4.1290 N   0  0  0  0  0  0  0  0  0  0  0  0
    5.6350   -6.6090   -1.9730 N   0  0  0  0  0  2  0  0  0  0  0  0
    5.5790   -6.0520   -0.7250 C   0  0  0  0  0  0  0  0  0  0  0  0
    5.7540   -6.6390    0.5470 C   0  0  0  0  0  3  0  0  0  0  0  0
    5.7260   -5.8480    1.7110 C   0  0  0  0  0  3  0  0  0  0  0  0
    5.5310   -4.4850    1.5280 C   0  0  0  0  0  0  0  0  0  0  0  0
    5.2920   -3.8870    0.2840 C   0  0  0  0  0  0  0  0  0  0  0  0
    5.3110   -4.6900   -0.8200 C   0  0  0  0  0  0  0  0  0  0  0  0
    5.1790   -2.4300    0.4250 C   0  0  0  0  0  2  0  0  0  0  0  0
    5.7530   -2.2820    1.8600 C   0  0  2  0  0  3  0  0  0  0  0  0
    5.5890   -3.5630    2.5570 O   0  0  0  0  0  0  0  0  0  0  0  0
    5.9790   -4.8610   -4.7080 H   0  0  0  0  0  0  0  0  0  0  0  0
    6.1120   -6.5410   -4.5080 H   0  0  0  0  0  0  0  0  0  0  0  0
    4.3860   -3.3780   -2.7660 C   0  0  0  0  0  2  0  0  0  0  0  0
    2.8460   -3.4380   -2.7180 C   0  0  0  0  0  2  0  0  0  0  0  0
    2.0740   -4.4310   -3.5990 C   0  0  0  0  0  2  0  0  0  0  0  0
    1.7970   -5.8230   -1.5170 C   0  0  0  0  0  1  0  0  0  0  0  0
    1.9130   -5.8110   -3.0110 N   0  0  0  0  0  4  0  0  0  0  0  0
    0.7350   -6.5180   -3.6500 C   0  0  0  0  0  1  0  0  0  0  0  0
    2.7150   -6.3860   -3.2930 H   0  0  0  0  0  0  0  0  0  0  0  0
    5.0710   -1.1960    2.6990 C   0  0  0  0  0  2  0  0  0  0  0  0
    3.5800   -1.1330    2.3780 N   0  0  0  0  0  4  0  0  0  0  0  0
    2.6970   -1.6860    3.4650 C   0  0  0  0  0  1  0  0  0  0  0  0
    3.1400    0.2480    1.9750 C   0  0  0  0  0  1  0  0  0  0  0  0
    3.4450   -1.7390    1.5510 H   0  0  0  0  0  0  0  0  0  0  0  0
  1 10  1  0  0  0  0
  2  3  1  6  0  0  0
  2  1  1  0  0  0  0
  2  4  1  0  0  0  0
  4  5  1  0  0  0  0
  5  6  1  0  0  0  0
  6  7  2  0  0  0  0
  8  7  1  0  0  0  0
  8 13  1  0  0  0  0
  9 11  1  0  0  0  0
  9  8  2  0  0  0  0
 10  5  2  0  0  0  0
 10  9  1  0  0  0  0
 11 12  1  0  0  0  0
 12 13  1  0  0  0  0
 12 23  1  1  0  0  0
 14  3  1  0  0  0  0
 15  3  1  0  0  0  0
 16 17  1  0  0  0  0
 16  1  1  0  0  0  0
 18 20  1  0  0  0  0
 18 17  1  0  0  0  0
 20 19  1  0  0  0  0
 21 20  1  0  0  0  0
 22 20  1  0  0  0  0
 24 23  1  0  0  0  0
 24 25  1  0  0  0  0
 26 24  1  0  0  0  0
 27 24  1  0  0  0  0
M  END
>  <minimizedAffinity>
-2.11371493

$$$$
