
 OpenBabel09122222393D

 37 41  0  0  1  0  0  0  0  0999 V2000
   12.4930    4.1040    8.2510 C   0  0  0  0  0  0  0  0  0  0  0  0
   11.5450    3.9630    9.2680 C   0  0  0  0  0  3  0  0  0  0  0  0
   10.8290    5.0710    9.7370 C   0  0  0  0  0  3  0  0  0  0  0  0
   11.1020    6.3140    9.1440 C   0  0  0  0  0  0  0  0  0  0  0  0
   12.0200    6.4540    8.1110 C   0  0  0  0  0  0  0  0  0  0  0  0
   12.7190    5.3390    7.6340 C   0  0  0  0  0  3  0  0  0  0  0  0
   12.1000    7.7530    7.7060 N   0  0  0  0  0  0  0  0  0  0  0  0
   11.2150    8.4350    8.4210 C   0  0  0  0  0  0  0  0  0  0  0  0
   10.6220    7.6010    9.3610 N   0  0  0  0  0  0  0  0  0  0  0  0
   10.9730    9.8690    8.2100 C   0  0  0  0  0  0  0  0  0  0  0  0
   11.1820   10.7760    9.2460 C   0  0  0  0  0  3  0  0  0  0  0  0
   10.9840   12.1330    9.0060 C   0  0  0  0  0  3  0  0  0  0  0  0
   10.5980   12.5470    7.7380 C   0  0  0  0  0  3  0  0  0  0  0  0
   10.4260   11.5820    6.7610 C   0  0  0  0  0  3  0  0  0  0  0  0
   10.6040   10.2570    6.9680 N   0  0  0  0  0  0  0  0  0  0  0  0
    9.7130    7.9300   10.4600 C   0  0  0  0  0  3  0  0  0  0  0  0
    8.5390    6.9540   10.6590 C   0  0  0  0  0  2  0  0  0  0  0  0
    7.5970    7.4390   11.7610 C   0  0  0  0  0  2  0  0  0  0  0  0
    8.3480    7.7200   13.0590 C   0  0  0  0  0  2  0  0  0  0  0  0
    9.4690    8.7330   12.8510 C   0  0  0  0  0  2  0  0  0  0  0  0
   10.4450    8.2890   11.7620 C   0  0  0  0  0  2  0  0  0  0  0  0
   12.6170    2.0030    6.9720 N   0  0  0  0  0  0  0  0  0  0  0  0
   13.2260    2.9060    7.8020 C   0  0  0  0  0  0  0  0  0  0  0  0
   14.3920    2.7460    8.1510 O   0  0  0  0  0  0  0  0  0  0  0  0
   13.1950    1.1940    6.7820 H   0  0  0  0  0  0  0  0  0  0  0  0
   11.3140    2.0750    6.3180 C   0  0  1  0  0  3  0  0  0  0  0  0
   11.4910    2.3990    4.8340 C   0  0  0  0  0  1  0  0  0  0  0  0
    9.1230   -1.6400    6.8380 C   0  0  0  0  0  0  0  0  0  0  0  0
    8.6780   -0.4690    7.4550 C   0  0  0  0  0  3  0  0  0  0  0  0
    9.3780    0.7320    7.2940 C   0  0  0  0  0  3  0  0  0  0  0  0
   10.5380    0.7850    6.5080 C   0  0  0  0  0  0  0  0  0  0  0  0
   10.9730   -0.3930    5.8810 C   0  0  0  0  0  3  0  0  0  0  0  0
   10.2500   -1.5830    6.0140 C   0  0  0  0  0  0  0  0  0  0  0  0
    7.1890   -2.8370    6.2420 C   0  0  0  0  0  1  0  0  0  0  0  0
    8.3460   -2.7440    7.0670 O   0  0  0  0  0  0  0  0  0  0  0  0
   10.6980   -2.6760    5.3170 O   0  0  0  0  0  0  0  0  0  0  0  0
   10.1700   -2.6410    3.9880 C   0  0  0  0  0  1  0  0  0  0  0  0
  1  2  1  0  0  0  0
  2  3  2  0  0  0  0
  4  9  1  0  0  0  0
  4  3  1  0  0  0  0
  5  4  2  0  0  0  0
  6  5  1  0  0  0  0
  6  1  2  0  0  0  0
  7  5  1  0  0  0  0
  7  8  2  0  0  0  0
  8  9  1  0  0  0  0
  9 16  1  0  0  0  0
 10  8  1  0  0  0  0
 10 11  1  0  0  0  0
 12 11  2  0  0  0  0
 13 12  1  0  0  0  0
 14 15  1  0  0  0  0
 14 13  2  0  0  0  0
 15 10  2  0  0  0  0
 16 17  1  0  0  0  0
 16 21  1  0  0  0  0
 17 18  1  0  0  0  0
 18 19  1  0  0  0  0
 20 19  1  0  0  0  0
 21 20  1  0  0  0  0
 22 23  1  0  0  0  0
 23 24  2  0  0  0  0
 23  1  1  0  0  0  0
 25 22  1  0  0  0  0
 26 27  1  6  0  0  0
 26 31  1  0  0  0  0
 26 22  1  0  0  0  0
 28 35  1  0  0  0  0
 28 29  1  0  0  0  0
 30 29  2  0  0  0  0
 31 30  1  0  0  0  0
 32 33  1  0  0  0  0
 32 31  2  0  0  0  0
 33 28  2  0  0  0  0
 34 35  1  0  0  0  0
 36 33  1  0  0  0  0
 37 36  1  0  0  0  0
M  END
>  <minimizedAffinity>
-6.6515975

$$$$
