
 OpenBabel09122222393D

 37 41  0  0  1  0  0  0  0  0999 V2000
    9.3670   -1.8000    7.4070 C   0  0  0  0  0  0  0  0  0  0  0  0
    8.3840   -1.7810    6.4150 C   0  0  0  0  0  3  0  0  0  0  0  0
    7.0260   -1.7900    6.7530 C   0  0  0  0  0  3  0  0  0  0  0  0
    6.7000   -1.8140    8.1180 C   0  0  0  0  0  0  0  0  0  0  0  0
    7.6730   -1.8010    9.1100 C   0  0  0  0  0  0  0  0  0  0  0  0
    9.0300   -1.7730    8.7650 C   0  0  0  0  0  3  0  0  0  0  0  0
    7.1040   -1.8240   10.3480 N   0  0  0  0  0  0  0  0  0  0  0  0
    5.7900   -1.8000   10.1690 C   0  0  0  0  0  0  0  0  0  0  0  0
    5.4960   -1.8540    8.8110 N   0  0  0  0  0  0  0  0  0  0  0  0
    4.8450   -1.7490   11.2930 C   0  0  0  0  0  0  0  0  0  0  0  0
    4.2250   -0.5500   11.6360 C   0  0  0  0  0  3  0  0  0  0  0  0
    3.3040   -0.5410   12.6790 C   0  0  0  0  0  3  0  0  0  0  0  0
    3.0190   -1.7270   13.3420 C   0  0  0  0  0  3  0  0  0  0  0  0
    3.6680   -2.8770   12.9290 C   0  0  0  0  0  3  0  0  0  0  0  0
    4.5730   -2.9150   11.9240 N   0  0  0  0  0  0  0  0  0  0  0  0
    4.2030   -2.0060    8.1410 C   0  0  0  0  0  3  0  0  0  0  0  0
    3.6000   -0.7090    7.5710 C   0  0  0  0  0  2  0  0  0  0  0  0
    2.2110   -0.9560    6.9840 C   0  0  0  0  0  2  0  0  0  0  0  0
    2.2260   -2.0900    5.9630 C   0  0  0  0  0  2  0  0  0  0  0  0
    2.7720   -3.3810    6.5660 C   0  0  0  0  0  2  0  0  0  0  0  0
    4.1670   -3.1880    7.1610 C   0  0  0  0  0  2  0  0  0  0  0  0
   11.5850   -0.7340    7.3050 N   0  0  0  0  0  0  0  0  0  0  0  0
   10.7830   -1.8000    6.9960 C   0  0  0  0  0  0  0  0  0  0  0  0
   11.2400   -2.7750    6.4080 O   0  0  0  0  0  0  0  0  0  0  0  0
   12.5170   -0.8190    6.9180 H   0  0  0  0  0  0  0  0  0  0  0  0
   11.2950    0.4400    8.1220 C   0  0  1  0  0  3  0  0  0  0  0  0
   12.4910    0.7610    9.0200 C   0  0  0  0  0  1  0  0  0  0  0  0
   10.2060    3.8480    5.6580 C   0  0  0  0  0  0  0  0  0  0  0  0
   11.4890    3.3040    5.5790 C   0  0  0  0  0  3  0  0  0  0  0  0
   11.8500    2.2080    6.3680 C   0  0  0  0  0  3  0  0  0  0  0  0
   10.9280    1.6300    7.2550 C   0  0  0  0  0  0  0  0  0  0  0  0
    9.6360    2.1730    7.3210 C   0  0  0  0  0  3  0  0  0  0  0  0
    9.2690    3.2470    6.5020 C   0  0  0  0  0  0  0  0  0  0  0  0
   10.6730    4.8580    3.5860 C   0  0  0  0  0  1  0  0  0  0  0  0
    9.9770    4.9120    4.8280 O   0  0  0  0  0  0  0  0  0  0  0  0
    7.9700    3.6800    6.5730 O   0  0  0  0  0  0  0  0  0  0  0  0
    7.6900    4.1270    7.9030 C   0  0  0  0  0  1  0  0  0  0  0  0
  1  6  1  0  0  0  0
  2  3  1  0  0  0  0
  2  1  2  0  0  0  0
  3  4  2  0  0  0  0
  4  9  1  0  0  0  0
  4  5  1  0  0  0  0
  5  7  1  0  0  0  0
  6  5  2  0  0  0  0
  8  7  2  0  0  0  0
  8 10  1  0  0  0  0
  9  8  1  0  0  0  0
 10 11  2  0  0  0  0
 10 15  1  0  0  0  0
 11 12  1  0  0  0  0
 12 13  2  0  0  0  0
 14 13  1  0  0  0  0
 15 14  2  0  0  0  0
 16  9  1  0  0  0  0
 17 16  1  0  0  0  0
 18 17  1  0  0  0  0
 19 20  1  0  0  0  0
 19 18  1  0  0  0  0
 20 21  1  0  0  0  0
 21 16  1  0  0  0  0
 22 26  1  0  0  0  0
 23 22  1  0  0  0  0
 23  1  1  0  0  0  0
 24 23  2  0  0  0  0
 25 22  1  0  0  0  0
 26 27  1  6  0  0  0
 28 33  1  0  0  0  0
 29 28  2  0  0  0  0
 29 30  1  0  0  0  0
 30 31  2  0  0  0  0
 31 32  1  0  0  0  0
 31 26  1  0  0  0  0
 33 36  1  0  0  0  0
 33 32  2  0  0  0  0
 34 35  1  0  0  0  0
 35 28  1  0  0  0  0
 36 37  1  0  0  0  0
M  END
>  <minimizedAffinity>
-6.78207779

$$$$
