
 OpenBabel09122222393D

 37 41  0  0  1  0  0  0  0  0999 V2000
   13.2740    5.8670    6.6970 C   0  0  0  0  0  0  0  0  0  0  0  0
   13.5230    7.2270    6.5010 C   0  0  0  0  0  3  0  0  0  0  0  0
   12.8620    8.1940    7.2680 C   0  0  0  0  0  3  0  0  0  0  0  0
   11.9500    7.7390    8.2330 C   0  0  0  0  0  0  0  0  0  0  0  0
   11.7210    6.3870    8.4540 C   0  0  0  0  0  0  0  0  0  0  0  0
   12.4000    5.4250    7.6960 C   0  0  0  0  0  3  0  0  0  0  0  0
   10.8000    6.2060    9.4420 N   0  0  0  0  0  0  0  0  0  0  0  0
   10.4750    7.4110    9.8920 C   0  0  0  0  0  0  0  0  0  0  0  0
   11.1130    8.3870    9.1360 N   0  0  0  0  0  0  0  0  0  0  0  0
    9.5470    7.6060   11.0140 C   0  0  0  0  0  0  0  0  0  0  0  0
    8.2680    7.0560   10.9710 C   0  0  0  0  0  3  0  0  0  0  0  0
    7.4240    7.2230   12.0660 C   0  0  0  0  0  3  0  0  0  0  0  0
    7.8840    7.9190   13.1750 C   0  0  0  0  0  3  0  0  0  0  0  0
    9.1730    8.4200   13.1430 C   0  0  0  0  0  3  0  0  0  0  0  0
   10.0120    8.2810   12.0910 N   0  0  0  0  0  0  0  0  0  0  0  0
   10.9460    9.8410    9.1540 C   0  0  0  0  0  3  0  0  0  0  0  0
   11.8570   10.5970   10.1390 C   0  0  0  0  0  2  0  0  0  0  0  0
   11.5350   12.0900   10.1550 C   0  0  0  0  0  2  0  0  0  0  0  0
   11.5710   12.6880    8.7520 C   0  0  0  0  0  2  0  0  0  0  0  0
   10.6180   11.9620    7.8080 C   0  0  0  0  0  2  0  0  0  0  0  0
   10.9040   10.4620    7.7500 C   0  0  0  0  0  2  0  0  0  0  0  0
   13.4570    4.5030    4.6550 N   0  0  0  0  0  0  0  0  0  0  0  0
   13.9900    4.8910    5.8550 C   0  0  0  0  0  0  0  0  0  0  0  0
   15.0780    4.4610    6.2240 O   0  0  0  0  0  0  0  0  0  0  0  0
   14.0050    3.7860    4.1970 H   0  0  0  0  0  0  0  0  0  0  0  0
   12.2730    4.9990    3.9610 C   0  0  1  0  0  3  0  0  0  0  0  0
   12.6890    5.8910    2.7900 C   0  0  0  0  0  1  0  0  0  0  0  0
    9.7620    1.7030    2.6560 C   0  0  0  0  0  0  0  0  0  0  0  0
   10.1370    2.7010    1.7550 C   0  0  0  0  0  3  0  0  0  0  0  0
   10.9440    3.7660    2.1660 C   0  0  0  0  0  3  0  0  0  0  0  0
   11.3970    3.8530    3.4910 C   0  0  0  0  0  0  0  0  0  0  0  0
   11.0270    2.8400    4.3890 C   0  0  0  0  0  3  0  0  0  0  0  0
   10.2490    1.7570    3.9640 C   0  0  0  0  0  0  0  0  0  0  0  0
    9.4910    0.1220    0.9360 C   0  0  0  0  0  1  0  0  0  0  0  0
    8.9790    0.7120    2.1280 O   0  0  0  0  0  0  0  0  0  0  0  0
    9.9850    0.7720    4.8810 O   0  0  0  0  0  0  0  0  0  0  0  0
   10.3540    1.2250    6.1870 C   0  0  0  0  0  1  0  0  0  0  0  0
  1  6  1  0  0  0  0
  2  1  2  0  0  0  0
  2  3  1  0  0  0  0
  3  4  2  0  0  0  0
  4  5  1  0  0  0  0
  4  9  1  0  0  0  0
  5  7  1  0  0  0  0
  6  5  2  0  0  0  0
  7  8  2  0  0  0  0
  8 10  1  0  0  0  0
  9 16  1  0  0  0  0
  9  8  1  0  0  0  0
 10 15  1  0  0  0  0
 11 10  2  0  0  0  0
 11 12  1  0  0  0  0
 12 13  2  0  0  0  0
 14 13  1  0  0  0  0
 15 14  2  0  0  0  0
 16 17  1  0  0  0  0
 17 18  1  0  0  0  0
 19 18  1  0  0  0  0
 20 19  1  0  0  0  0
 21 20  1  0  0  0  0
 21 16  1  0  0  0  0
 22 23  1  0  0  0  0
 23 24  2  0  0  0  0
 23  1  1  0  0  0  0
 25 22  1  0  0  0  0
 26 27  1  6  0  0  0
 26 22  1  0  0  0  0
 28 33  1  0  0  0  0
 29 30  1  0  0  0  0
 29 28  2  0  0  0  0
 30 31  2  0  0  0  0
 31 26  1  0  0  0  0
 31 32  1  0  0  0  0
 33 32  2  0  0  0  0
 33 36  1  0  0  0  0
 34 35  1  0  0  0  0
 35 28  1  0  0  0  0
 36 37  1  0  0  0  0
M  END
>  <minimizedAffinity>
-6.5511632

$$$$
