
 OpenBabel09122222393D

 37 41  0  0  1  0  0  0  0  0999 V2000
    9.8340   -0.0120    9.3220 C   0  0  0  0  0  0  0  0  0  0  0  0
    9.2990   -0.2370   10.5930 C   0  0  0  0  0  3  0  0  0  0  0  0
    7.9550   -0.5940   10.7500 C   0  0  0  0  0  3  0  0  0  0  0  0
    7.1790   -0.7170    9.5870 C   0  0  0  0  0  0  0  0  0  0  0  0
    7.7130   -0.5250    8.3190 C   0  0  0  0  0  0  0  0  0  0  0  0
    9.0630   -0.1870    8.1670 C   0  0  0  0  0  3  0  0  0  0  0  0
    6.7620   -0.7070    7.3590 N   0  0  0  0  0  0  0  0  0  0  0  0
    5.6470   -1.0610    7.9840 C   0  0  0  0  0  0  0  0  0  0  0  0
    5.8410   -1.0210    9.3600 N   0  0  0  0  0  0  0  0  0  0  0  0
    4.4160   -1.4050    7.2580 C   0  0  0  0  0  0  0  0  0  0  0  0
    3.2230   -0.7480    7.5490 C   0  0  0  0  0  3  0  0  0  0  0  0
    2.0820   -1.0660    6.8180 C   0  0  0  0  0  3  0  0  0  0  0  0
    2.1660   -2.0170    5.8100 C   0  0  0  0  0  3  0  0  0  0  0  0
    3.3940   -2.6110    5.5760 C   0  0  0  0  0  3  0  0  0  0  0  0
    4.5160   -2.3290    6.2750 N   0  0  0  0  0  0  0  0  0  0  0  0
    4.8710   -1.1760   10.4440 C   0  0  0  0  0  3  0  0  0  0  0  0
    5.0750   -2.4120   11.3390 C   0  0  0  0  0  2  0  0  0  0  0  0
    3.9570   -2.5380   12.3730 C   0  0  0  0  0  2  0  0  0  0  0  0
    3.7930   -1.2540   13.1820 C   0  0  0  0  0  2  0  0  0  0  0  0
    3.5330   -0.0520   12.2800 C   0  0  0  0  0  2  0  0  0  0  0  0
    4.6310    0.1220   11.2300 C   0  0  0  0  0  2  0  0  0  0  0  0
   11.5980    1.6940    9.1110 N   0  0  0  0  0  0  0  0  0  0  0  0
   11.2540    0.3720    9.2130 C   0  0  0  0  0  0  0  0  0  0  0  0
   12.1180   -0.4970    9.2510 O   0  0  0  0  0  0  0  0  0  0  0  0
   12.5930    1.8300    8.9810 H   0  0  0  0  0  0  0  0  0  0  0  0
   10.7570    2.8830    9.2050 C   0  0  1  0  0  3  0  0  0  0  0  0
   11.3040    3.8270   10.2770 C   0  0  0  0  0  1  0  0  0  0  0  0
   10.4300    4.8520    5.3470 C   0  0  0  0  0  0  0  0  0  0  0  0
   11.0600    5.4950    6.4140 C   0  0  0  0  0  3  0  0  0  0  0  0
   11.1700    4.8700    7.6600 C   0  0  0  0  0  3  0  0  0  0  0  0
   10.6510    3.5820    7.8630 C   0  0  0  0  0  0  0  0  0  0  0  0
   10.0300    2.9360    6.7830 C   0  0  0  0  0  3  0  0  0  0  0  0
    9.9550    3.5510    5.5290 C   0  0  0  0  0  0  0  0  0  0  0  0
   11.6320    5.6070    3.4720 C   0  0  0  0  0  1  0  0  0  0  0  0
   10.3960    5.5670    4.1800 O   0  0  0  0  0  0  0  0  0  0  0  0
    9.3940    2.8310    4.5050 O   0  0  0  0  0  0  0  0  0  0  0  0
   10.4070    2.0540    3.8600 C   0  0  0  0  0  1  0  0  0  0  0  0
  1  2  1  0  0  0  0
  2  3  2  0  0  0  0
  4  3  1  0  0  0  0
  5  4  2  0  0  0  0
  6  5  1  0  0  0  0
  6  1  2  0  0  0  0
  7  8  2  0  0  0  0
  7  5  1  0  0  0  0
  8  9  1  0  0  0  0
  9  4  1  0  0  0  0
  9 16  1  0  0  0  0
 10 11  1  0  0  0  0
 10  8  1  0  0  0  0
 12 11  2  0  0  0  0
 13 12  1  0  0  0  0
 14 13  2  0  0  0  0
 14 15  1  0  0  0  0
 15 10  2  0  0  0  0
 16 21  1  0  0  0  0
 16 17  1  0  0  0  0
 17 18  1  0  0  0  0
 18 19  1  0  0  0  0
 20 19  1  0  0  0  0
 21 20  1  0  0  0  0
 22 26  1  0  0  0  0
 22 23  1  0  0  0  0
 23 24  2  0  0  0  0
 23  1  1  0  0  0  0
 25 22  1  0  0  0  0
 26 27  1  1  0  0  0
 28 33  2  0  0  0  0
 28 29  1  0  0  0  0
 29 30  2  0  0  0  0
 30 31  1  0  0  0  0
 31 26  1  0  0  0  0
 32 31  2  0  0  0  0
 33 32  1  0  0  0  0
 34 35  1  0  0  0  0
 35 28  1  0  0  0  0
 36 33  1  0  0  0  0
 37 36  1  0  0  0  0
M  END
>  <minimizedAffinity>
-6.25771952

$$$$
