
 OpenBabel09122219303D

 37 41  0  0  1  0  0  0  0  0999 V2000
    9.3670   -1.8000    7.4070 C   0  0  0  0  0  0  0  0  0  0  0  0
    8.3840   -1.7810    6.4150 C   0  0  0  0  0  3  0  0  0  0  0  0
    7.0260   -1.7900    6.7530 C   0  0  0  0  0  3  0  0  0  0  0  0
    6.7000   -1.8140    8.1180 C   0  0  0  0  0  0  0  0  0  0  0  0
    7.6730   -1.8010    9.1100 C   0  0  0  0  0  0  0  0  0  0  0  0
    9.0300   -1.7730    8.7650 C   0  0  0  0  0  3  0  0  0  0  0  0
    7.1040   -1.8240   10.3480 N   0  0  0  0  0  0  0  0  0  0  0  0
    5.7900   -1.8000   10.1690 C   0  0  0  0  0  0  0  0  0  0  0  0
    5.4960   -1.8540    8.8110 N   0  0  0  0  0  0  0  0  0  0  0  0
    4.8450   -1.7490   11.2930 C   0  0  0  0  0  0  0  0  0  0  0  0
    4.2250   -0.5500   11.6360 C   0  0  0  0  0  3  0  0  0  0  0  0
    3.3040   -0.5410   12.6790 C   0  0  0  0  0  3  0  0  0  0  0  0
    3.0190   -1.7270   13.3420 C   0  0  0  0  0  3  0  0  0  0  0  0
    3.6680   -2.8770   12.9290 C   0  0  0  0  0  3  0  0  0  0  0  0
    4.5730   -2.9150   11.9240 N   0  0  0  0  0  0  0  0  0  0  0  0
    4.2030   -2.0060    8.1410 C   0  0  0  0  0  3  0  0  0  0  0  0
    3.6000   -0.7090    7.5710 C   0  0  0  0  0  2  0  0  0  0  0  0
    2.2110   -0.9560    6.9840 C   0  0  0  0  0  2  0  0  0  0  0  0
    2.2260   -2.0900    5.9630 C   0  0  0  0  0  2  0  0  0  0  0  0
    2.7720   -3.3810    6.5660 C   0  0  0  0  0  2  0  0  0  0  0  0
    4.1670   -3.1880    7.1610 C   0  0  0  0  0  2  0  0  0  0  0  0
   11.5850   -0.7340    7.3050 N   0  0  0  0  0  0  0  0  0  0  0  0
   10.7830   -1.8000    6.9960 C   0  0  0  0  0  0  0  0  0  0  0  0
   11.2400   -2.7750    6.4080 O   0  0  0  0  0  0  0  0  0  0  0  0
   12.5170   -0.8190    6.9180 H   0  0  0  0  0  0  0  0  0  0  0  0
   11.2950    0.4400    8.1220 C   0  0  1  0  0  3  0  0  0  0  0  0
   12.4910    0.7610    9.0200 C   0  0  0  0  0  1  0  0  0  0  0  0
   10.2060    3.8480    5.6580 C   0  0  0  0  0  0  0  0  0  0  0  0
   11.4890    3.3040    5.5790 C   0  0  0  0  0  3  0  0  0  0  0  0
   11.8500    2.2080    6.3680 C   0  0  0  0  0  3  0  0  0  0  0  0
   10.9280    1.6300    7.2550 C   0  0  0  0  0  0  0  0  0  0  0  0
    9.6360    2.1730    7.3210 C   0  0  0  0  0  3  0  0  0  0  0  0
    9.2690    3.2470    6.5020 C   0  0  0  0  0  0  0  0  0  0  0  0
   10.6730    4.8580    3.5860 C   0  0  0  0  0  1  0  0  0  0  0  0
    9.9770    4.9120    4.8280 O   0  0  0  0  0  0  0  0  0  0  0  0
    7.9700    3.6800    6.5730 O   0  0  0  0  0  0  0  0  0  0  0  0
    7.6900    4.1270    7.9030 C   0  0  0  0  0  1  0  0  0  0  0  0
  1  6  1  0  0  0  0
  2  3  1  0  0  0  0
  2  1  2  0  0  0  0
  3  4  2  0  0  0  0
  4  9  1  0  0  0  0
  4  5  1  0  0  0  0
  5  7  1  0  0  0  0
  6  5  2  0  0  0  0
  8  7  2  0  0  0  0
  8 10  1  0  0  0  0
  9  8  1  0  0  0  0
 10 11  2  0  0  0  0
 10 15  1  0  0  0  0
 11 12  1  0  0  0  0
 12 13  2  0  0  0  0
 14 13  1  0  0  0  0
 15 14  2  0  0  0  0
 16  9  1  0  0  0  0
 17 16  1  0  0  0  0
 18 17  1  0  0  0  0
 19 20  1  0  0  0  0
 19 18  1  0  0  0  0
 20 21  1  0  0  0  0
 21 16  1  0  0  0  0
 22 26  1  0  0  0  0
 23 22  1  0  0  0  0
 23  1  1  0  0  0  0
 24 23  2  0  0  0  0
 25 22  1  0  0  0  0
 26 27  1  6  0  0  0
 28 33  1  0  0  0  0
 29 28  2  0  0  0  0
 29 30  1  0  0  0  0
 30 31  2  0  0  0  0
 31 32  1  0  0  0  0
 31 26  1  0  0  0  0
 33 36  1  0  0  0  0
 33 32  2  0  0  0  0
 34 35  1  0  0  0  0
 35 28  1  0  0  0  0
 36 37  1  0  0  0  0
M  END
>  <minimizedAffinity>
-6.78207779

$$$$

 OpenBabel09122219303D

 37 41  0  0  1  0  0  0  0  0999 V2000
    9.5680   -2.6090    9.4150 C   0  0  0  0  0  0  0  0  0  0  0  0
    8.9250   -2.7290   10.6490 C   0  0  0  0  0  3  0  0  0  0  0  0
    7.5310   -2.6320   10.7430 C   0  0  0  0  0  3  0  0  0  0  0  0
    6.8180   -2.4160    9.5540 C   0  0  0  0  0  0  0  0  0  0  0  0
    7.4490   -2.3280    8.3190 C   0  0  0  0  0  0  0  0  0  0  0  0
    8.8420   -2.4430    8.2300 C   0  0  0  0  0  3  0  0  0  0  0  0
    6.5410   -2.1220    7.3240 N   0  0  0  0  0  0  0  0  0  0  0  0
    5.3410   -2.1290    7.8890 C   0  0  0  0  0  0  0  0  0  0  0  0
    5.4680   -2.2460    9.2680 N   0  0  0  0  0  0  0  0  0  0  0  0
    4.1040   -2.0000    7.1070 C   0  0  0  0  0  0  0  0  0  0  0  0
    3.1720   -1.0150    7.4240 C   0  0  0  0  0  3  0  0  0  0  0  0
    2.0290   -0.8890    6.6400 C   0  0  0  0  0  3  0  0  0  0  0  0
    1.8540   -1.7400    5.5570 C   0  0  0  0  0  3  0  0  0  0  0  0
    2.8350   -2.6810    5.3020 C   0  0  0  0  0  3  0  0  0  0  0  0
    3.9510   -2.8310    6.0500 N   0  0  0  0  0  0  0  0  0  0  0  0
    4.4460   -2.1450   10.3120 C   0  0  0  0  0  3  0  0  0  0  0  0
    4.3010   -3.3830   11.2150 C   0  0  0  0  0  2  0  0  0  0  0  0
    3.1460   -3.2160   12.2020 C   0  0  0  0  0  2  0  0  0  0  0  0
    3.2740   -1.9230   13.0020 C   0  0  0  0  0  2  0  0  0  0  0  0
    3.3560   -0.7040   12.0890 C   0  0  0  0  0  2  0  0  0  0  0  0
    4.5040   -0.8190   11.0860 C   0  0  0  0  0  2  0  0  0  0  0  0
   11.8030   -1.5760    9.4780 N   0  0  0  0  0  0  0  0  0  0  0  0
   11.0380   -2.7070    9.3740 C   0  0  0  0  0  0  0  0  0  0  0  0
   11.5660   -3.8110    9.2830 O   0  0  0  0  0  0  0  0  0  0  0  0
   12.7920   -1.7610    9.3750 H   0  0  0  0  0  0  0  0  0  0  0  0
   11.3940   -0.2010    9.7480 C   0  0  1  0  0  3  0  0  0  0  0  0
   12.5320    0.5580   10.4330 C   0  0  0  0  0  1  0  0  0  0  0  0
   10.1140    1.8170    6.1200 C   0  0  0  0  0  0  0  0  0  0  0  0
   11.3450    1.1600    6.1630 C   0  0  0  0  0  3  0  0  0  0  0  0
   11.7660    0.5080    7.3260 C   0  0  0  0  0  3  0  0  0  0  0  0
   10.9590    0.4980    8.4740 C   0  0  0  0  0  0  0  0  0  0  0  0
    9.7170    1.1500    8.4200 C   0  0  0  0  0  3  0  0  0  0  0  0
    9.2840    1.7690    7.2430 C   0  0  0  0  0  0  0  0  0  0  0  0
   10.2890    3.7440    4.7830 C   0  0  0  0  0  1  0  0  0  0  0  0
    9.8160    2.4070    4.9210 O   0  0  0  0  0  0  0  0  0  0  0  0
    8.0310    2.3260    7.2460 O   0  0  0  0  0  0  0  0  0  0  0  0
    8.0970    3.6420    7.8050 C   0  0  0  0  0  1  0  0  0  0  0  0
  1  2  1  0  0  0  0
  2  3  2  0  0  0  0
  4  3  1  0  0  0  0
  5  4  2  0  0  0  0
  6  5  1  0  0  0  0
  6  1  2  0  0  0  0
  7  8  2  0  0  0  0
  7  5  1  0  0  0  0
  8  9  1  0  0  0  0
  9  4  1  0  0  0  0
  9 16  1  0  0  0  0
 10 11  1  0  0  0  0
 10  8  1  0  0  0  0
 12 11  2  0  0  0  0
 13 12  1  0  0  0  0
 14 13  2  0  0  0  0
 14 15  1  0  0  0  0
 15 10  2  0  0  0  0
 16 21  1  0  0  0  0
 16 17  1  0  0  0  0
 17 18  1  0  0  0  0
 18 19  1  0  0  0  0
 20 19  1  0  0  0  0
 21 20  1  0  0  0  0
 22 26  1  0  0  0  0
 23  1  1  0  0  0  0
 23 22  1  0  0  0  0
 24 23  2  0  0  0  0
 25 22  1  0  0  0  0
 26 27  1  6  0  0  0
 28 29  2  0  0  0  0
 28 33  1  0  0  0  0
 29 30  1  0  0  0  0
 30 31  2  0  0  0  0
 31 26  1  0  0  0  0
 32 31  1  0  0  0  0
 33 36  1  0  0  0  0
 33 32  2  0  0  0  0
 34 35  1  0  0  0  0
 35 28  1  0  0  0  0
 36 37  1  0  0  0  0
M  END
>  <minimizedAffinity>
-6.65535116

$$$$

 OpenBabel09122219303D

 37 41  0  0  1  0  0  0  0  0999 V2000
   12.4930    4.1040    8.2510 C   0  0  0  0  0  0  0  0  0  0  0  0
   11.5450    3.9630    9.2680 C   0  0  0  0  0  3  0  0  0  0  0  0
   10.8290    5.0710    9.7370 C   0  0  0  0  0  3  0  0  0  0  0  0
   11.1020    6.3140    9.1440 C   0  0  0  0  0  0  0  0  0  0  0  0
   12.0200    6.4540    8.1110 C   0  0  0  0  0  0  0  0  0  0  0  0
   12.7190    5.3390    7.6340 C   0  0  0  0  0  3  0  0  0  0  0  0
   12.1000    7.7530    7.7060 N   0  0  0  0  0  0  0  0  0  0  0  0
   11.2150    8.4350    8.4210 C   0  0  0  0  0  0  0  0  0  0  0  0
   10.6220    7.6010    9.3610 N   0  0  0  0  0  0  0  0  0  0  0  0
   10.9730    9.8690    8.2100 C   0  0  0  0  0  0  0  0  0  0  0  0
   11.1820   10.7760    9.2460 C   0  0  0  0  0  3  0  0  0  0  0  0
   10.9840   12.1330    9.0060 C   0  0  0  0  0  3  0  0  0  0  0  0
   10.5980   12.5470    7.7380 C   0  0  0  0  0  3  0  0  0  0  0  0
   10.4260   11.5820    6.7610 C   0  0  0  0  0  3  0  0  0  0  0  0
   10.6040   10.2570    6.9680 N   0  0  0  0  0  0  0  0  0  0  0  0
    9.7130    7.9300   10.4600 C   0  0  0  0  0  3  0  0  0  0  0  0
    8.5390    6.9540   10.6590 C   0  0  0  0  0  2  0  0  0  0  0  0
    7.5970    7.4390   11.7610 C   0  0  0  0  0  2  0  0  0  0  0  0
    8.3480    7.7200   13.0590 C   0  0  0  0  0  2  0  0  0  0  0  0
    9.4690    8.7330   12.8510 C   0  0  0  0  0  2  0  0  0  0  0  0
   10.4450    8.2890   11.7620 C   0  0  0  0  0  2  0  0  0  0  0  0
   12.6170    2.0030    6.9720 N   0  0  0  0  0  0  0  0  0  0  0  0
   13.2260    2.9060    7.8020 C   0  0  0  0  0  0  0  0  0  0  0  0
   14.3920    2.7460    8.1510 O   0  0  0  0  0  0  0  0  0  0  0  0
   13.1950    1.1940    6.7820 H   0  0  0  0  0  0  0  0  0  0  0  0
   11.3140    2.0750    6.3180 C   0  0  1  0  0  3  0  0  0  0  0  0
   11.4910    2.3990    4.8340 C   0  0  0  0  0  1  0  0  0  0  0  0
    9.1230   -1.6400    6.8380 C   0  0  0  0  0  0  0  0  0  0  0  0
    8.6780   -0.4690    7.4550 C   0  0  0  0  0  3  0  0  0  0  0  0
    9.3780    0.7320    7.2940 C   0  0  0  0  0  3  0  0  0  0  0  0
   10.5380    0.7850    6.5080 C   0  0  0  0  0  0  0  0  0  0  0  0
   10.9730   -0.3930    5.8810 C   0  0  0  0  0  3  0  0  0  0  0  0
   10.2500   -1.5830    6.0140 C   0  0  0  0  0  0  0  0  0  0  0  0
    7.1890   -2.8370    6.2420 C   0  0  0  0  0  1  0  0  0  0  0  0
    8.3460   -2.7440    7.0670 O   0  0  0  0  0  0  0  0  0  0  0  0
   10.6980   -2.6760    5.3170 O   0  0  0  0  0  0  0  0  0  0  0  0
   10.1700   -2.6410    3.9880 C   0  0  0  0  0  1  0  0  0  0  0  0
  1  2  1  0  0  0  0
  2  3  2  0  0  0  0
  4  9  1  0  0  0  0
  4  3  1  0  0  0  0
  5  4  2  0  0  0  0
  6  5  1  0  0  0  0
  6  1  2  0  0  0  0
  7  5  1  0  0  0  0
  7  8  2  0  0  0  0
  8  9  1  0  0  0  0
  9 16  1  0  0  0  0
 10  8  1  0  0  0  0
 10 11  1  0  0  0  0
 12 11  2  0  0  0  0
 13 12  1  0  0  0  0
 14 15  1  0  0  0  0
 14 13  2  0  0  0  0
 15 10  2  0  0  0  0
 16 17  1  0  0  0  0
 16 21  1  0  0  0  0
 17 18  1  0  0  0  0
 18 19  1  0  0  0  0
 20 19  1  0  0  0  0
 21 20  1  0  0  0  0
 22 23  1  0  0  0  0
 23 24  2  0  0  0  0
 23  1  1  0  0  0  0
 25 22  1  0  0  0  0
 26 27  1  6  0  0  0
 26 31  1  0  0  0  0
 26 22  1  0  0  0  0
 28 35  1  0  0  0  0
 28 29  1  0  0  0  0
 30 29  2  0  0  0  0
 31 30  1  0  0  0  0
 32 33  1  0  0  0  0
 32 31  2  0  0  0  0
 33 28  2  0  0  0  0
 34 35  1  0  0  0  0
 36 33  1  0  0  0  0
 37 36  1  0  0  0  0
M  END
>  <minimizedAffinity>
-6.6515975

$$$$

 OpenBabel09122219303D

 37 41  0  0  1  0  0  0  0  0999 V2000
   13.2740    5.8670    6.6970 C   0  0  0  0  0  0  0  0  0  0  0  0
   13.5230    7.2270    6.5010 C   0  0  0  0  0  3  0  0  0  0  0  0
   12.8620    8.1940    7.2680 C   0  0  0  0  0  3  0  0  0  0  0  0
   11.9500    7.7390    8.2330 C   0  0  0  0  0  0  0  0  0  0  0  0
   11.7210    6.3870    8.4540 C   0  0  0  0  0  0  0  0  0  0  0  0
   12.4000    5.4250    7.6960 C   0  0  0  0  0  3  0  0  0  0  0  0
   10.8000    6.2060    9.4420 N   0  0  0  0  0  0  0  0  0  0  0  0
   10.4750    7.4110    9.8920 C   0  0  0  0  0  0  0  0  0  0  0  0
   11.1130    8.3870    9.1360 N   0  0  0  0  0  0  0  0  0  0  0  0
    9.5470    7.6060   11.0140 C   0  0  0  0  0  0  0  0  0  0  0  0
    8.2680    7.0560   10.9710 C   0  0  0  0  0  3  0  0  0  0  0  0
    7.4240    7.2230   12.0660 C   0  0  0  0  0  3  0  0  0  0  0  0
    7.8840    7.9190   13.1750 C   0  0  0  0  0  3  0  0  0  0  0  0
    9.1730    8.4200   13.1430 C   0  0  0  0  0  3  0  0  0  0  0  0
   10.0120    8.2810   12.0910 N   0  0  0  0  0  0  0  0  0  0  0  0
   10.9460    9.8410    9.1540 C   0  0  0  0  0  3  0  0  0  0  0  0
   11.8570   10.5970   10.1390 C   0  0  0  0  0  2  0  0  0  0  0  0
   11.5350   12.0900   10.1550 C   0  0  0  0  0  2  0  0  0  0  0  0
   11.5710   12.6880    8.7520 C   0  0  0  0  0  2  0  0  0  0  0  0
   10.6180   11.9620    7.8080 C   0  0  0  0  0  2  0  0  0  0  0  0
   10.9040   10.4620    7.7500 C   0  0  0  0  0  2  0  0  0  0  0  0
   13.4570    4.5030    4.6550 N   0  0  0  0  0  0  0  0  0  0  0  0
   13.9900    4.8910    5.8550 C   0  0  0  0  0  0  0  0  0  0  0  0
   15.0780    4.4610    6.2240 O   0  0  0  0  0  0  0  0  0  0  0  0
   14.0050    3.7860    4.1970 H   0  0  0  0  0  0  0  0  0  0  0  0
   12.2730    4.9990    3.9610 C   0  0  1  0  0  3  0  0  0  0  0  0
   12.6890    5.8910    2.7900 C   0  0  0  0  0  1  0  0  0  0  0  0
    9.7620    1.7030    2.6560 C   0  0  0  0  0  0  0  0  0  0  0  0
   10.1370    2.7010    1.7550 C   0  0  0  0  0  3  0  0  0  0  0  0
   10.9440    3.7660    2.1660 C   0  0  0  0  0  3  0  0  0  0  0  0
   11.3970    3.8530    3.4910 C   0  0  0  0  0  0  0  0  0  0  0  0
   11.0270    2.8400    4.3890 C   0  0  0  0  0  3  0  0  0  0  0  0
   10.2490    1.7570    3.9640 C   0  0  0  0  0  0  0  0  0  0  0  0
    9.4910    0.1220    0.9360 C   0  0  0  0  0  1  0  0  0  0  0  0
    8.9790    0.7120    2.1280 O   0  0  0  0  0  0  0  0  0  0  0  0
    9.9850    0.7720    4.8810 O   0  0  0  0  0  0  0  0  0  0  0  0
   10.3540    1.2250    6.1870 C   0  0  0  0  0  1  0  0  0  0  0  0
  1  6  1  0  0  0  0
  2  1  2  0  0  0  0
  2  3  1  0  0  0  0
  3  4  2  0  0  0  0
  4  5  1  0  0  0  0
  4  9  1  0  0  0  0
  5  7  1  0  0  0  0
  6  5  2  0  0  0  0
  7  8  2  0  0  0  0
  8 10  1  0  0  0  0
  9 16  1  0  0  0  0
  9  8  1  0  0  0  0
 10 15  1  0  0  0  0
 11 10  2  0  0  0  0
 11 12  1  0  0  0  0
 12 13  2  0  0  0  0
 14 13  1  0  0  0  0
 15 14  2  0  0  0  0
 16 17  1  0  0  0  0
 17 18  1  0  0  0  0
 19 18  1  0  0  0  0
 20 19  1  0  0  0  0
 21 20  1  0  0  0  0
 21 16  1  0  0  0  0
 22 23  1  0  0  0  0
 23 24  2  0  0  0  0
 23  1  1  0  0  0  0
 25 22  1  0  0  0  0
 26 27  1  6  0  0  0
 26 22  1  0  0  0  0
 28 33  1  0  0  0  0
 29 30  1  0  0  0  0
 29 28  2  0  0  0  0
 30 31  2  0  0  0  0
 31 26  1  0  0  0  0
 31 32  1  0  0  0  0
 33 32  2  0  0  0  0
 33 36  1  0  0  0  0
 34 35  1  0  0  0  0
 35 28  1  0  0  0  0
 36 37  1  0  0  0  0
M  END
>  <minimizedAffinity>
-6.5511632

$$$$

 OpenBabel09122219303D

 37 41  0  0  1  0  0  0  0  0999 V2000
    9.1610   -2.2350    8.9800 C   0  0  0  0  0  0  0  0  0  0  0  0
    8.4370   -2.1010    7.7920 C   0  0  0  0  0  3  0  0  0  0  0  0
    7.0390   -2.0390    7.8090 C   0  0  0  0  0  3  0  0  0  0  0  0
    6.4040   -2.1140    9.0600 C   0  0  0  0  0  0  0  0  0  0  0  0
    7.1200   -2.2150   10.2460 C   0  0  0  0  0  0  0  0  0  0  0  0
    8.5200   -2.2570   10.2230 C   0  0  0  0  0  3  0  0  0  0  0  0
    6.2790   -2.2660   11.3170 N   0  0  0  0  0  0  0  0  0  0  0  0
    5.0450   -2.1470   10.8440 C   0  0  0  0  0  0  0  0  0  0  0  0
    5.0720   -2.1120    9.4550 N   0  0  0  0  0  0  0  0  0  0  0  0
    3.8690   -2.0940   11.7240 C   0  0  0  0  0  0  0  0  0  0  0  0
    3.2740   -0.8720   12.0280 C   0  0  0  0  0  3  0  0  0  0  0  0
    2.1380   -0.8560   12.8310 C   0  0  0  0  0  3  0  0  0  0  0  0
    1.6200   -2.0570   13.2960 C   0  0  0  0  0  3  0  0  0  0  0  0
    2.2630   -3.2280   12.9360 C   0  0  0  0  0  3  0  0  0  0  0  0
    3.3730   -3.2730   12.1640 N   0  0  0  0  0  0  0  0  0  0  0  0
    3.9640   -2.1440    8.4990 C   0  0  0  0  0  3  0  0  0  0  0  0
    3.6320   -0.7990    7.8280 C   0  0  0  0  0  2  0  0  0  0  0  0
    2.4030   -0.9170    6.9280 C   0  0  0  0  0  2  0  0  0  0  0  0
    2.5530   -2.0510    5.9180 C   0  0  0  0  0  2  0  0  0  0  0  0
    2.8220   -3.3850    6.6080 C   0  0  0  0  0  2  0  0  0  0  0  0
    4.0500   -3.3210    7.5150 C   0  0  0  0  0  2  0  0  0  0  0  0
   11.3760   -1.1580    8.9770 N   0  0  0  0  0  0  0  0  0  0  0  0
   10.6320   -2.3050    8.9030 C   0  0  0  0  0  0  0  0  0  0  0  0
   11.1790   -3.3990    8.8090 O   0  0  0  0  0  0  0  0  0  0  0  0
   12.3660   -1.3250    8.8510 H   0  0  0  0  0  0  0  0  0  0  0  0
   10.9470    0.2110    9.2440 C   0  0  1  0  0  3  0  0  0  0  0  0
   11.9790    0.9200   10.1240 C   0  0  0  0  0  1  0  0  0  0  0  0
   10.2520    2.4090    5.5630 C   0  0  0  0  0  0  0  0  0  0  0  0
   11.3540    1.5600    5.6780 C   0  0  0  0  0  3  0  0  0  0  0  0
   11.5870    0.8490    6.8590 C   0  0  0  0  0  3  0  0  0  0  0  0
   10.7160    0.9710    7.9530 C   0  0  0  0  0  0  0  0  0  0  0  0
    9.6030    1.8170    7.8260 C   0  0  0  0  0  3  0  0  0  0  0  0
    9.3540    2.4980    6.6290 C   0  0  0  0  0  0  0  0  0  0  0  0
   10.2830    2.1880    3.2220 C   0  0  0  0  0  1  0  0  0  0  0  0
   10.1310    3.0400    4.3540 O   0  0  0  0  0  0  0  0  0  0  0  0
    8.2100    3.2520    6.5580 O   0  0  0  0  0  0  0  0  0  0  0  0
    7.9860    3.8950    7.8160 C   0  0  0  0  0  1  0  0  0  0  0  0
  1  6  1  0  0  0  0
  2  3  1  0  0  0  0
  2  1  2  0  0  0  0
  3  4  2  0  0  0  0
  4  9  1  0  0  0  0
  4  5  1  0  0  0  0
  5  7  1  0  0  0  0
  6  5  2  0  0  0  0
  8  7  2  0  0  0  0
  8 10  1  0  0  0  0
  9  8  1  0  0  0  0
 10 11  2  0  0  0  0
 10 15  1  0  0  0  0
 11 12  1  0  0  0  0
 12 13  2  0  0  0  0
 14 13  1  0  0  0  0
 15 14  2  0  0  0  0
 16  9  1  0  0  0  0
 17 16  1  0  0  0  0
 18 17  1  0  0  0  0
 19 20  1  0  0  0  0
 19 18  1  0  0  0  0
 20 21  1  0  0  0  0
 21 16  1  0  0  0  0
 22 26  1  0  0  0  0
 23 22  1  0  0  0  0
 23  1  1  0  0  0  0
 24 23  2  0  0  0  0
 25 22  1  0  0  0  0
 26 27  1  1  0  0  0
 28 29  2  0  0  0  0
 28 33  1  0  0  0  0
 29 30  1  0  0  0  0
 30 31  2  0  0  0  0
 31 26  1  0  0  0  0
 32 31  1  0  0  0  0
 33 32  2  0  0  0  0
 34 35  1  0  0  0  0
 35 28  1  0  0  0  0
 36 33  1  0  0  0  0
 36 37  1  0  0  0  0
M  END
>  <minimizedAffinity>
-6.51741886

$$$$

 OpenBabel09122219303D

 37 41  0  0  1  0  0  0  0  0999 V2000
   10.5440    2.5250    4.4830 C   0  0  0  0  0  0  0  0  0  0  0  0
   11.7800    2.2130    5.0550 C   0  0  0  0  0  3  0  0  0  0  0  0
   12.1070    2.6590    6.3410 C   0  0  0  0  0  3  0  0  0  0  0  0
   11.1470    3.4220    7.0230 C   0  0  0  0  0  0  0  0  0  0  0  0
    9.9040    3.7100    6.4730 C   0  0  0  0  0  0  0  0  0  0  0  0
    9.5760    3.2450    5.1930 C   0  0  0  0  0  3  0  0  0  0  0  0
    9.1540    4.4580    7.3310 N   0  0  0  0  0  0  0  0  0  0  0  0
    9.8710    4.6100    8.4370 C   0  0  0  0  0  0  0  0  0  0  0  0
   11.1280    4.0400    8.2680 N   0  0  0  0  0  0  0  0  0  0  0  0
    9.3530    5.3140    9.6180 C   0  0  0  0  0  0  0  0  0  0  0  0
    9.5860    6.6770    9.7810 C   0  0  0  0  0  3  0  0  0  0  0  0
    9.0480    7.3260   10.8890 C   0  0  0  0  0  3  0  0  0  0  0  0
    8.2830    6.6010   11.7930 C   0  0  0  0  0  3  0  0  0  0  0  0
    8.0870    5.2530   11.5480 C   0  0  0  0  0  3  0  0  0  0  0  0
    8.6040    4.5950   10.4860 N   0  0  0  0  0  0  0  0  0  0  0  0
   12.3010    4.0940    9.1420 C   0  0  0  0  0  3  0  0  0  0  0  0
   13.0040    5.4610    9.2190 C   0  0  0  0  0  2  0  0  0  0  0  0
   14.2700    5.3860   10.0730 C   0  0  0  0  0  2  0  0  0  0  0  0
   13.9820    4.8000   11.4520 C   0  0  0  0  0  2  0  0  0  0  0  0
   13.3410    3.4200   11.3530 C   0  0  0  0  0  2  0  0  0  0  0  0
   12.0630    3.4430   10.5130 C   0  0  0  0  0  2  0  0  0  0  0  0
   10.8270    2.6550    2.0400 N   0  0  0  0  0  0  0  0  0  0  0  0
   10.2550    2.0390    3.1220 C   0  0  0  0  0  0  0  0  0  0  0  0
    9.5290    1.0620    2.9720 O   0  0  0  0  0  0  0  0  0  0  0  0
   10.5060    2.2750    1.1590 H   0  0  0  0  0  0  0  0  0  0  0  0
   11.8280    3.7160    1.9980 C   0  0  1  0  0  3  0  0  0  0  0  0
   12.5980    3.6560    0.6770 C   0  0  0  0  0  1  0  0  0  0  0  0
   10.0230    7.6200    2.6020 C   0  0  0  0  0  0  0  0  0  0  0  0
    9.6600    6.8400    1.5030 C   0  0  0  0  0  3  0  0  0  0  0  0
   10.2360    5.5820    1.2990 C   0  0  0  0  0  3  0  0  0  0  0  0
   11.1890    5.0770    2.1970 C   0  0  0  0  0  0  0  0  0  0  0  0
   11.5400    5.8610    3.3070 C   0  0  0  0  0  3  0  0  0  0  0  0
   10.9340    7.1030    3.5260 C   0  0  0  0  0  0  0  0  0  0  0  0
    8.9890    9.3850    1.4420 C   0  0  0  0  0  1  0  0  0  0  0  0
    9.3800    8.8260    2.6920 O   0  0  0  0  0  0  0  0  0  0  0  0
   11.2780    7.7810    4.6670 O   0  0  0  0  0  0  0  0  0  0  0  0
   11.6810    6.8460    5.6720 C   0  0  0  0  0  1  0  0  0  0  0  0
  1  2  2  0  0  0  0
  1  6  1  0  0  0  0
  2  3  1  0  0  0  0
  3  4  2  0  0  0  0
  4  9  1  0  0  0  0
  5  4  1  0  0  0  0
  5  7  1  0  0  0  0
  6  5  2  0  0  0  0
  7  8  2  0  0  0  0
  8 10  1  0  0  0  0
  9  8  1  0  0  0  0
  9 16  1  0  0  0  0
 10 11  2  0  0  0  0
 10 15  1  0  0  0  0
 11 12  1  0  0  0  0
 12 13  2  0  0  0  0
 14 13  1  0  0  0  0
 15 14  2  0  0  0  0
 16 17  1  0  0  0  0
 16 21  1  0  0  0  0
 17 18  1  0  0  0  0
 18 19  1  0  0  0  0
 20 19  1  0  0  0  0
 21 20  1  0  0  0  0
 22 23  1  0  0  0  0
 23  1  1  0  0  0  0
 24 23  2  0  0  0  0
 25 22  1  0  0  0  0
 26 27  1  6  0  0  0
 26 22  1  0  0  0  0
 26 31  1  0  0  0  0
 28 35  1  0  0  0  0
 28 33  1  0  0  0  0
 29 28  2  0  0  0  0
 30 29  1  0  0  0  0
 30 31  2  0  0  0  0
 31 32  1  0  0  0  0
 32 33  2  0  0  0  0
 33 36  1  0  0  0  0
 34 35  1  0  0  0  0
 36 37  1  0  0  0  0
M  END
>  <minimizedAffinity>
-6.46210098

$$$$

 OpenBabel09122219303D

 37 41  0  0  1  0  0  0  0  0999 V2000
    7.2850    2.7050   11.3420 C   0  0  0  0  0  0  0  0  0  0  0  0
    8.5820    2.5600   11.8400 C   0  0  0  0  0  3  0  0  0  0  0  0
    9.6860    2.5890   10.9800 C   0  0  0  0  0  3  0  0  0  0  0  0
    9.4340    2.7720    9.6110 C   0  0  0  0  0  0  0  0  0  0  0  0
    8.1490    2.9480    9.1140 C   0  0  0  0  0  0  0  0  0  0  0  0
    7.0500    2.9360    9.9820 C   0  0  0  0  0  3  0  0  0  0  0  0
    8.1700    3.1090    7.7610 N   0  0  0  0  0  0  0  0  0  0  0  0
    9.4440    3.0920    7.3900 C   0  0  0  0  0  0  0  0  0  0  0  0
   10.2530    2.8260    8.4890 N   0  0  0  0  0  0  0  0  0  0  0  0
    9.8590    3.3050    5.9970 C   0  0  0  0  0  0  0  0  0  0  0  0
   10.2590    4.5690    5.5690 C   0  0  0  0  0  3  0  0  0  0  0  0
   10.6860    4.7330    4.2540 C   0  0  0  0  0  3  0  0  0  0  0  0
   10.7140    3.6310    3.4090 C   0  0  0  0  0  3  0  0  0  0  0  0
   10.3140    2.4080    3.9180 C   0  0  0  0  0  3  0  0  0  0  0  0
    9.8880    2.2210    5.1880 N   0  0  0  0  0  0  0  0  0  0  0  0
   11.6910    2.5600    8.5460 C   0  0  0  0  0  3  0  0  0  0  0  0
   12.1560    1.2910    7.8090 C   0  0  0  0  0  2  0  0  0  0  0  0
   13.6510    1.0480    8.0130 C   0  0  0  0  0  2  0  0  0  0  0  0
   14.4750    2.2760    7.6370 C   0  0  0  0  0  2  0  0  0  0  0  0
   14.0370    3.5080    8.4230 C   0  0  0  0  0  2  0  0  0  0  0  0
   12.5470    3.7990    8.2440 C   0  0  0  0  0  2  0  0  0  0  0  0
    5.5410    1.4630   12.5590 N   0  0  0  0  0  0  0  0  0  0  0  0
    6.1570    2.6560   12.2900 C   0  0  0  0  0  0  0  0  0  0  0  0
    5.8010    3.6840   12.8580 O   0  0  0  0  0  0  0  0  0  0  0  0
    4.7440    1.5630   13.1740 H   0  0  0  0  0  0  0  0  0  0  0  0
    5.8970    0.1150   12.1240 C   0  0  1  0  0  3  0  0  0  0  0  0
    5.4770   -0.9040   13.1850 C   0  0  0  0  0  1  0  0  0  0  0  0
    4.1480   -0.8150    8.2590 C   0  0  0  0  0  0  0  0  0  0  0  0
    3.3310   -0.4590    9.3330 C   0  0  0  0  0  3  0  0  0  0  0  0
    3.8840   -0.1580   10.5810 C   0  0  0  0  0  3  0  0  0  0  0  0
    5.2730   -0.2060   10.7800 C   0  0  0  0  0  0  0  0  0  0  0  0
    6.0890   -0.5530    9.6930 C   0  0  0  0  0  3  0  0  0  0  0  0
    5.5340   -0.8170    8.4360 C   0  0  0  0  0  0  0  0  0  0  0  0
    2.0730   -1.2070    7.2240 C   0  0  0  0  0  1  0  0  0  0  0  0
    3.4850   -1.0760    7.0900 O   0  0  0  0  0  0  0  0  0  0  0  0
    6.3990   -1.0830    7.4060 O   0  0  0  0  0  0  0  0  0  0  0  0
    7.6910   -0.5560    7.7220 C   0  0  0  0  0  1  0  0  0  0  0  0
  1  2  1  0  0  0  0
  1 23  1  0  0  0  0
  3  2  2  0  0  0  0
  4  3  1  0  0  0  0
  5  4  2  0  0  0  0
  5  6  1  0  0  0  0
  6  1  2  0  0  0  0
  7  5  1  0  0  0  0
  8  7  2  0  0  0  0
  8  9  1  0  0  0  0
  9 16  1  0  0  0  0
  9  4  1  0  0  0  0
 10  8  1  0  0  0  0
 11 10  1  0  0  0  0
 12 11  2  0  0  0  0
 13 14  2  0  0  0  0
 13 12  1  0  0  0  0
 14 15  1  0  0  0  0
 15 10  2  0  0  0  0
 17 18  1  0  0  0  0
 17 16  1  0  0  0  0
 19 18  1  0  0  0  0
 19 20  1  0  0  0  0
 21 20  1  0  0  0  0
 21 16  1  0  0  0  0
 22 25  1  0  0  0  0
 23 22  1  0  0  0  0
 23 24  2  0  0  0  0
 26 22  1  0  0  0  0
 26 27  1  1  0  0  0
 28 33  2  0  0  0  0
 28 29  1  0  0  0  0
 29 30  2  0  0  0  0
 30 31  1  0  0  0  0
 31 26  1  0  0  0  0
 32 31  2  0  0  0  0
 33 32  1  0  0  0  0
 35 34  1  0  0  0  0
 35 28  1  0  0  0  0
 36 37  1  0  0  0  0
 36 33  1  0  0  0  0
M  END
>  <minimizedAffinity>
-6.40022898

$$$$

 OpenBabel09122219303D

 37 41  0  0  1  0  0  0  0  0999 V2000
    6.1440    0.8490   11.1440 C   0  0  0  0  0  0  0  0  0  0  0  0
    7.3030    0.4750   11.8280 C   0  0  0  0  0  3  0  0  0  0  0  0
    8.3670   -0.1370   11.1540 C   0  0  0  0  0  3  0  0  0  0  0  0
    8.2180   -0.3510    9.7740 C   0  0  0  0  0  0  0  0  0  0  0  0
    7.0810    0.0480    9.0830 C   0  0  0  0  0  0  0  0  0  0  0  0
    6.0290    0.6760    9.7610 C   0  0  0  0  0  3  0  0  0  0  0  0
    7.1820   -0.2660    7.7600 N   0  0  0  0  0  0  0  0  0  0  0  0
    8.3800   -0.8090    7.5840 C   0  0  0  0  0  0  0  0  0  0  0  0
    9.0270   -0.9360    8.8070 N   0  0  0  0  0  0  0  0  0  0  0  0
    8.8690   -1.2160    6.2590 C   0  0  0  0  0  0  0  0  0  0  0  0
    8.6760   -2.5200    5.8100 C   0  0  0  0  0  3  0  0  0  0  0  0
    9.1140   -2.8660    4.5350 C   0  0  0  0  0  3  0  0  0  0  0  0
    9.7190   -1.9000    3.7410 C   0  0  0  0  0  3  0  0  0  0  0  0
    9.8580   -0.6240    4.2580 C   0  0  0  0  0  3  0  0  0  0  0  0
    9.4500   -0.2620    5.4950 N   0  0  0  0  0  0  0  0  0  0  0  0
   10.2850   -1.6110    9.1320 C   0  0  0  0  0  3  0  0  0  0  0  0
   11.2110   -0.8500   10.0990 C   0  0  0  0  0  2  0  0  0  0  0  0
   12.5350   -1.5870   10.2930 C   0  0  0  0  0  2  0  0  0  0  0  0
   12.3130   -3.0360   10.7180 C   0  0  0  0  0  2  0  0  0  0  0  0
   11.4430   -3.7880    9.7160 C   0  0  0  0  0  2  0  0  0  0  0  0
   10.1000   -3.0930    9.4920 C   0  0  0  0  0  2  0  0  0  0  0  0
    4.0260    0.7130   12.3930 N   0  0  0  0  0  0  0  0  0  0  0  0
    5.0500    1.4800   11.9050 C   0  0  0  0  0  0  0  0  0  0  0  0
    5.0860    2.6870   12.1250 O   0  0  0  0  0  0  0  0  0  0  0  0
    3.3050    1.2630   12.8430 H   0  0  0  0  0  0  0  0  0  0  0  0
    3.8670   -0.7380   12.3860 C   0  0  1  0  0  3  0  0  0  0  0  0
    2.7130   -1.1420   13.3040 C   0  0  0  0  0  1  0  0  0  0  0  0
    3.2780   -2.2500    8.3560 C   0  0  0  0  0  0  0  0  0  0  0  0
    2.5210   -1.1730    8.8210 C   0  0  0  0  0  3  0  0  0  0  0  0
    2.7030   -0.6790   10.1170 C   0  0  0  0  0  3  0  0  0  0  0  0
    3.6520   -1.2540   10.9760 C   0  0  0  0  0  0  0  0  0  0  0  0
    4.4180   -2.3290   10.4980 C   0  0  0  0  0  3  0  0  0  0  0  0
    4.2590   -2.7950    9.1880 C   0  0  0  0  0  0  0  0  0  0  0  0
    2.2260   -1.7030    6.3250 C   0  0  0  0  0  1  0  0  0  0  0  0
    3.0110   -2.6310    7.0690 O   0  0  0  0  0  0  0  0  0  0  0  0
    5.0900   -3.8030    8.7710 O   0  0  0  0  0  0  0  0  0  0  0  0
    6.3930   -3.6050    9.3280 C   0  0  0  0  0  1  0  0  0  0  0  0
  1  2  1  0  0  0  0
  1 23  1  0  0  0  0
  3  2  2  0  0  0  0
  4  3  1  0  0  0  0
  5  6  1  0  0  0  0
  5  4  2  0  0  0  0
  6  1  2  0  0  0  0
  7  5  1  0  0  0  0
  8  7  2  0  0  0  0
  8  9  1  0  0  0  0
  9 16  1  0  0  0  0
  9  4  1  0  0  0  0
 10  8  1  0  0  0  0
 11 10  1  0  0  0  0
 12 11  2  0  0  0  0
 13 14  2  0  0  0  0
 13 12  1  0  0  0  0
 14 15  1  0  0  0  0
 15 10  2  0  0  0  0
 16 21  1  0  0  0  0
 16 17  1  0  0  0  0
 17 18  1  0  0  0  0
 18 19  1  0  0  0  0
 20 19  1  0  0  0  0
 21 20  1  0  0  0  0
 22 25  1  0  0  0  0
 23 24  2  0  0  0  0
 23 22  1  0  0  0  0
 26 22  1  0  0  0  0
 26 27  1  1  0  0  0
 28 29  2  0  0  0  0
 28 33  1  0  0  0  0
 29 30  1  0  0  0  0
 30 31  2  0  0  0  0
 31 26  1  0  0  0  0
 32 31  1  0  0  0  0
 33 32  2  0  0  0  0
 34 35  1  0  0  0  0
 35 28  1  0  0  0  0
 36 33  1  0  0  0  0
 36 37  1  0  0  0  0
M  END
>  <minimizedAffinity>
-6.29999399

$$$$

 OpenBabel09122219303D

 37 41  0  0  1  0  0  0  0  0999 V2000
    8.9870   -0.3150    8.6370 C   0  0  0  0  0  0  0  0  0  0  0  0
    8.2210   -0.5280    7.4880 C   0  0  0  0  0  3  0  0  0  0  0  0
    6.8630   -0.8570    7.5840 C   0  0  0  0  0  3  0  0  0  0  0  0
    6.3130   -0.9590    8.8710 C   0  0  0  0  0  0  0  0  0  0  0  0
    7.0610   -0.7170   10.0160 C   0  0  0  0  0  0  0  0  0  0  0  0
    8.4140   -0.3700    9.9130 C   0  0  0  0  0  3  0  0  0  0  0  0
    6.3010   -0.8750   11.1360 N   0  0  0  0  0  0  0  0  0  0  0  0
    5.0710   -1.1610   10.7290 C   0  0  0  0  0  0  0  0  0  0  0  0
    5.0460   -1.2820    9.3450 N   0  0  0  0  0  0  0  0  0  0  0  0
    3.9540   -1.3350   11.6680 C   0  0  0  0  0  0  0  0  0  0  0  0
    3.3880   -0.2300   12.2990 C   0  0  0  0  0  3  0  0  0  0  0  0
    2.3050   -0.4210   13.1520 C   0  0  0  0  0  3  0  0  0  0  0  0
    1.8100   -1.7040   13.3420 C   0  0  0  0  0  3  0  0  0  0  0  0
    2.4210   -2.7460   12.6650 C   0  0  0  0  0  3  0  0  0  0  0  0
    3.4790   -2.5910   11.8370 N   0  0  0  0  0  0  0  0  0  0  0  0
    3.9660   -1.7340    8.4660 C   0  0  0  0  0  3  0  0  0  0  0  0
    3.3620   -0.6510    7.5530 C   0  0  0  0  0  2  0  0  0  0  0  0
    2.1810   -1.1980    6.7530 C   0  0  0  0  0  2  0  0  0  0  0  0
    2.5590   -2.4620    5.9860 C   0  0  0  0  0  2  0  0  0  0  0  0
    3.0990   -3.5430    6.9170 C   0  0  0  0  0  2  0  0  0  0  0  0
    4.2900   -3.0470    7.7370 C   0  0  0  0  0  2  0  0  0  0  0  0
   10.7790    1.2260    7.9450 N   0  0  0  0  0  0  0  0  0  0  0  0
   10.4140    0.0190    8.4800 C   0  0  0  0  0  0  0  0  0  0  0  0
   11.2650   -0.7780    8.8630 O   0  0  0  0  0  0  0  0  0  0  0  0
   11.7800    1.3160    7.8300 H   0  0  0  0  0  0  0  0  0  0  0  0
    9.9480    2.3670    7.5760 C   0  0  1  0  0  3  0  0  0  0  0  0
   10.2230    3.5410    8.5170 C   0  0  0  0  0  1  0  0  0  0  0  0
   10.5990    3.5370    3.4440 C   0  0  0  0  0  0  0  0  0  0  0  0
   10.6060    2.1880    3.8020 C   0  0  0  0  0  3  0  0  0  0  0  0
   10.3990    1.8010    5.1300 C   0  0  0  0  0  3  0  0  0  0  0  0
   10.1750    2.7610    6.1290 C   0  0  0  0  0  0  0  0  0  0  0  0
   10.1560    4.1150    5.7600 C   0  0  0  0  0  3  0  0  0  0  0  0
   10.3280    4.4950    4.4240 C   0  0  0  0  0  0  0  0  0  0  0  0
   10.2180    2.8270    1.2350 C   0  0  0  0  0  1  0  0  0  0  0  0
   10.8050    3.7830    2.1130 O   0  0  0  0  0  0  0  0  0  0  0  0
   10.2290    5.8310    4.1300 O   0  0  0  0  0  0  0  0  0  0  0  0
   11.4040    6.5070    4.5880 C   0  0  0  0  0  1  0  0  0  0  0  0
  1  6  1  0  0  0  0
  2  3  1  0  0  0  0
  2  1  2  0  0  0  0
  3  4  2  0  0  0  0
  4  9  1  0  0  0  0
  4  5  1  0  0  0  0
  5  7  1  0  0  0  0
  6  5  2  0  0  0  0
  8  7  2  0  0  0  0
  8 10  1  0  0  0  0
  9  8  1  0  0  0  0
 10 15  2  0  0  0  0
 10 11  1  0  0  0  0
 11 12  2  0  0  0  0
 12 13  1  0  0  0  0
 14 13  2  0  0  0  0
 15 14  1  0  0  0  0
 16  9  1  0  0  0  0
 17 16  1  0  0  0  0
 18 17  1  0  0  0  0
 19 18  1  0  0  0  0
 19 20  1  0  0  0  0
 20 21  1  0  0  0  0
 21 16  1  0  0  0  0
 22 23  1  0  0  0  0
 23  1  1  0  0  0  0
 23 24  2  0  0  0  0
 25 22  1  0  0  0  0
 26 22  1  0  0  0  0
 26 27  1  1  0  0  0
 28 29  2  0  0  0  0
 28 33  1  0  0  0  0
 29 30  1  0  0  0  0
 30 31  2  0  0  0  0
 31 26  1  0  0  0  0
 32 31  1  0  0  0  0
 33 32  2  0  0  0  0
 34 35  1  0  0  0  0
 35 28  1  0  0  0  0
 36 33  1  0  0  0  0
 36 37  1  0  0  0  0
M  END
>  <minimizedAffinity>
-6.26381254

$$$$

 OpenBabel09122219303D

 37 41  0  0  1  0  0  0  0  0999 V2000
    9.8340   -0.0120    9.3220 C   0  0  0  0  0  0  0  0  0  0  0  0
    9.2990   -0.2370   10.5930 C   0  0  0  0  0  3  0  0  0  0  0  0
    7.9550   -0.5940   10.7500 C   0  0  0  0  0  3  0  0  0  0  0  0
    7.1790   -0.7170    9.5870 C   0  0  0  0  0  0  0  0  0  0  0  0
    7.7130   -0.5250    8.3190 C   0  0  0  0  0  0  0  0  0  0  0  0
    9.0630   -0.1870    8.1670 C   0  0  0  0  0  3  0  0  0  0  0  0
    6.7620   -0.7070    7.3590 N   0  0  0  0  0  0  0  0  0  0  0  0
    5.6470   -1.0610    7.9840 C   0  0  0  0  0  0  0  0  0  0  0  0
    5.8410   -1.0210    9.3600 N   0  0  0  0  0  0  0  0  0  0  0  0
    4.4160   -1.4050    7.2580 C   0  0  0  0  0  0  0  0  0  0  0  0
    3.2230   -0.7480    7.5490 C   0  0  0  0  0  3  0  0  0  0  0  0
    2.0820   -1.0660    6.8180 C   0  0  0  0  0  3  0  0  0  0  0  0
    2.1660   -2.0170    5.8100 C   0  0  0  0  0  3  0  0  0  0  0  0
    3.3940   -2.6110    5.5760 C   0  0  0  0  0  3  0  0  0  0  0  0
    4.5160   -2.3290    6.2750 N   0  0  0  0  0  0  0  0  0  0  0  0
    4.8710   -1.1760   10.4440 C   0  0  0  0  0  3  0  0  0  0  0  0
    5.0750   -2.4120   11.3390 C   0  0  0  0  0  2  0  0  0  0  0  0
    3.9570   -2.5380   12.3730 C   0  0  0  0  0  2  0  0  0  0  0  0
    3.7930   -1.2540   13.1820 C   0  0  0  0  0  2  0  0  0  0  0  0
    3.5330   -0.0520   12.2800 C   0  0  0  0  0  2  0  0  0  0  0  0
    4.6310    0.1220   11.2300 C   0  0  0  0  0  2  0  0  0  0  0  0
   11.5980    1.6940    9.1110 N   0  0  0  0  0  0  0  0  0  0  0  0
   11.2540    0.3720    9.2130 C   0  0  0  0  0  0  0  0  0  0  0  0
   12.1180   -0.4970    9.2510 O   0  0  0  0  0  0  0  0  0  0  0  0
   12.5930    1.8300    8.9810 H   0  0  0  0  0  0  0  0  0  0  0  0
   10.7570    2.8830    9.2050 C   0  0  1  0  0  3  0  0  0  0  0  0
   11.3040    3.8270   10.2770 C   0  0  0  0  0  1  0  0  0  0  0  0
   10.4300    4.8520    5.3470 C   0  0  0  0  0  0  0  0  0  0  0  0
   11.0600    5.4950    6.4140 C   0  0  0  0  0  3  0  0  0  0  0  0
   11.1700    4.8700    7.6600 C   0  0  0  0  0  3  0  0  0  0  0  0
   10.6510    3.5820    7.8630 C   0  0  0  0  0  0  0  0  0  0  0  0
   10.0300    2.9360    6.7830 C   0  0  0  0  0  3  0  0  0  0  0  0
    9.9550    3.5510    5.5290 C   0  0  0  0  0  0  0  0  0  0  0  0
   11.6320    5.6070    3.4720 C   0  0  0  0  0  1  0  0  0  0  0  0
   10.3960    5.5670    4.1800 O   0  0  0  0  0  0  0  0  0  0  0  0
    9.3940    2.8310    4.5050 O   0  0  0  0  0  0  0  0  0  0  0  0
   10.4070    2.0540    3.8600 C   0  0  0  0  0  1  0  0  0  0  0  0
  1  2  1  0  0  0  0
  2  3  2  0  0  0  0
  4  3  1  0  0  0  0
  5  4  2  0  0  0  0
  6  5  1  0  0  0  0
  6  1  2  0  0  0  0
  7  8  2  0  0  0  0
  7  5  1  0  0  0  0
  8  9  1  0  0  0  0
  9  4  1  0  0  0  0
  9 16  1  0  0  0  0
 10 11  1  0  0  0  0
 10  8  1  0  0  0  0
 12 11  2  0  0  0  0
 13 12  1  0  0  0  0
 14 13  2  0  0  0  0
 14 15  1  0  0  0  0
 15 10  2  0  0  0  0
 16 21  1  0  0  0  0
 16 17  1  0  0  0  0
 17 18  1  0  0  0  0
 18 19  1  0  0  0  0
 20 19  1  0  0  0  0
 21 20  1  0  0  0  0
 22 26  1  0  0  0  0
 22 23  1  0  0  0  0
 23 24  2  0  0  0  0
 23  1  1  0  0  0  0
 25 22  1  0  0  0  0
 26 27  1  1  0  0  0
 28 33  2  0  0  0  0
 28 29  1  0  0  0  0
 29 30  2  0  0  0  0
 30 31  1  0  0  0  0
 31 26  1  0  0  0  0
 32 31  2  0  0  0  0
 33 32  1  0  0  0  0
 34 35  1  0  0  0  0
 35 28  1  0  0  0  0
 36 33  1  0  0  0  0
 37 36  1  0  0  0  0
M  END
>  <minimizedAffinity>
-6.25771952

$$$$
