
 OpenBabel09122222393D

 37 41  0  0  1  0  0  0  0  0999 V2000
    6.1440    0.8490   11.1440 C   0  0  0  0  0  0  0  0  0  0  0  0
    7.3030    0.4750   11.8280 C   0  0  0  0  0  3  0  0  0  0  0  0
    8.3670   -0.1370   11.1540 C   0  0  0  0  0  3  0  0  0  0  0  0
    8.2180   -0.3510    9.7740 C   0  0  0  0  0  0  0  0  0  0  0  0
    7.0810    0.0480    9.0830 C   0  0  0  0  0  0  0  0  0  0  0  0
    6.0290    0.6760    9.7610 C   0  0  0  0  0  3  0  0  0  0  0  0
    7.1820   -0.2660    7.7600 N   0  0  0  0  0  0  0  0  0  0  0  0
    8.3800   -0.8090    7.5840 C   0  0  0  0  0  0  0  0  0  0  0  0
    9.0270   -0.9360    8.8070 N   0  0  0  0  0  0  0  0  0  0  0  0
    8.8690   -1.2160    6.2590 C   0  0  0  0  0  0  0  0  0  0  0  0
    8.6760   -2.5200    5.8100 C   0  0  0  0  0  3  0  0  0  0  0  0
    9.1140   -2.8660    4.5350 C   0  0  0  0  0  3  0  0  0  0  0  0
    9.7190   -1.9000    3.7410 C   0  0  0  0  0  3  0  0  0  0  0  0
    9.8580   -0.6240    4.2580 C   0  0  0  0  0  3  0  0  0  0  0  0
    9.4500   -0.2620    5.4950 N   0  0  0  0  0  0  0  0  0  0  0  0
   10.2850   -1.6110    9.1320 C   0  0  0  0  0  3  0  0  0  0  0  0
   11.2110   -0.8500   10.0990 C   0  0  0  0  0  2  0  0  0  0  0  0
   12.5350   -1.5870   10.2930 C   0  0  0  0  0  2  0  0  0  0  0  0
   12.3130   -3.0360   10.7180 C   0  0  0  0  0  2  0  0  0  0  0  0
   11.4430   -3.7880    9.7160 C   0  0  0  0  0  2  0  0  0  0  0  0
   10.1000   -3.0930    9.4920 C   0  0  0  0  0  2  0  0  0  0  0  0
    4.0260    0.7130   12.3930 N   0  0  0  0  0  0  0  0  0  0  0  0
    5.0500    1.4800   11.9050 C   0  0  0  0  0  0  0  0  0  0  0  0
    5.0860    2.6870   12.1250 O   0  0  0  0  0  0  0  0  0  0  0  0
    3.3050    1.2630   12.8430 H   0  0  0  0  0  0  0  0  0  0  0  0
    3.8670   -0.7380   12.3860 C   0  0  1  0  0  3  0  0  0  0  0  0
    2.7130   -1.1420   13.3040 C   0  0  0  0  0  1  0  0  0  0  0  0
    3.2780   -2.2500    8.3560 C   0  0  0  0  0  0  0  0  0  0  0  0
    2.5210   -1.1730    8.8210 C   0  0  0  0  0  3  0  0  0  0  0  0
    2.7030   -0.6790   10.1170 C   0  0  0  0  0  3  0  0  0  0  0  0
    3.6520   -1.2540   10.9760 C   0  0  0  0  0  0  0  0  0  0  0  0
    4.4180   -2.3290   10.4980 C   0  0  0  0  0  3  0  0  0  0  0  0
    4.2590   -2.7950    9.1880 C   0  0  0  0  0  0  0  0  0  0  0  0
    2.2260   -1.7030    6.3250 C   0  0  0  0  0  1  0  0  0  0  0  0
    3.0110   -2.6310    7.0690 O   0  0  0  0  0  0  0  0  0  0  0  0
    5.0900   -3.8030    8.7710 O   0  0  0  0  0  0  0  0  0  0  0  0
    6.3930   -3.6050    9.3280 C   0  0  0  0  0  1  0  0  0  0  0  0
  1  2  1  0  0  0  0
  1 23  1  0  0  0  0
  3  2  2  0  0  0  0
  4  3  1  0  0  0  0
  5  6  1  0  0  0  0
  5  4  2  0  0  0  0
  6  1  2  0  0  0  0
  7  5  1  0  0  0  0
  8  7  2  0  0  0  0
  8  9  1  0  0  0  0
  9 16  1  0  0  0  0
  9  4  1  0  0  0  0
 10  8  1  0  0  0  0
 11 10  1  0  0  0  0
 12 11  2  0  0  0  0
 13 14  2  0  0  0  0
 13 12  1  0  0  0  0
 14 15  1  0  0  0  0
 15 10  2  0  0  0  0
 16 21  1  0  0  0  0
 16 17  1  0  0  0  0
 17 18  1  0  0  0  0
 18 19  1  0  0  0  0
 20 19  1  0  0  0  0
 21 20  1  0  0  0  0
 22 25  1  0  0  0  0
 23 24  2  0  0  0  0
 23 22  1  0  0  0  0
 26 22  1  0  0  0  0
 26 27  1  1  0  0  0
 28 29  2  0  0  0  0
 28 33  1  0  0  0  0
 29 30  1  0  0  0  0
 30 31  2  0  0  0  0
 31 26  1  0  0  0  0
 32 31  1  0  0  0  0
 33 32  2  0  0  0  0
 34 35  1  0  0  0  0
 35 28  1  0  0  0  0
 36 33  1  0  0  0  0
 36 37  1  0  0  0  0
M  END
>  <minimizedAffinity>
-6.29999399

$$$$
