
 OpenBabel09122222393D

 37 41  0  0  1  0  0  0  0  0999 V2000
   10.5440    2.5250    4.4830 C   0  0  0  0  0  0  0  0  0  0  0  0
   11.7800    2.2130    5.0550 C   0  0  0  0  0  3  0  0  0  0  0  0
   12.1070    2.6590    6.3410 C   0  0  0  0  0  3  0  0  0  0  0  0
   11.1470    3.4220    7.0230 C   0  0  0  0  0  0  0  0  0  0  0  0
    9.9040    3.7100    6.4730 C   0  0  0  0  0  0  0  0  0  0  0  0
    9.5760    3.2450    5.1930 C   0  0  0  0  0  3  0  0  0  0  0  0
    9.1540    4.4580    7.3310 N   0  0  0  0  0  0  0  0  0  0  0  0
    9.8710    4.6100    8.4370 C   0  0  0  0  0  0  0  0  0  0  0  0
   11.1280    4.0400    8.2680 N   0  0  0  0  0  0  0  0  0  0  0  0
    9.3530    5.3140    9.6180 C   0  0  0  0  0  0  0  0  0  0  0  0
    9.5860    6.6770    9.7810 C   0  0  0  0  0  3  0  0  0  0  0  0
    9.0480    7.3260   10.8890 C   0  0  0  0  0  3  0  0  0  0  0  0
    8.2830    6.6010   11.7930 C   0  0  0  0  0  3  0  0  0  0  0  0
    8.0870    5.2530   11.5480 C   0  0  0  0  0  3  0  0  0  0  0  0
    8.6040    4.5950   10.4860 N   0  0  0  0  0  0  0  0  0  0  0  0
   12.3010    4.0940    9.1420 C   0  0  0  0  0  3  0  0  0  0  0  0
   13.0040    5.4610    9.2190 C   0  0  0  0  0  2  0  0  0  0  0  0
   14.2700    5.3860   10.0730 C   0  0  0  0  0  2  0  0  0  0  0  0
   13.9820    4.8000   11.4520 C   0  0  0  0  0  2  0  0  0  0  0  0
   13.3410    3.4200   11.3530 C   0  0  0  0  0  2  0  0  0  0  0  0
   12.0630    3.4430   10.5130 C   0  0  0  0  0  2  0  0  0  0  0  0
   10.8270    2.6550    2.0400 N   0  0  0  0  0  0  0  0  0  0  0  0
   10.2550    2.0390    3.1220 C   0  0  0  0  0  0  0  0  0  0  0  0
    9.5290    1.0620    2.9720 O   0  0  0  0  0  0  0  0  0  0  0  0
   10.5060    2.2750    1.1590 H   0  0  0  0  0  0  0  0  0  0  0  0
   11.8280    3.7160    1.9980 C   0  0  1  0  0  3  0  0  0  0  0  0
   12.5980    3.6560    0.6770 C   0  0  0  0  0  1  0  0  0  0  0  0
   10.0230    7.6200    2.6020 C   0  0  0  0  0  0  0  0  0  0  0  0
    9.6600    6.8400    1.5030 C   0  0  0  0  0  3  0  0  0  0  0  0
   10.2360    5.5820    1.2990 C   0  0  0  0  0  3  0  0  0  0  0  0
   11.1890    5.0770    2.1970 C   0  0  0  0  0  0  0  0  0  0  0  0
   11.5400    5.8610    3.3070 C   0  0  0  0  0  3  0  0  0  0  0  0
   10.9340    7.1030    3.5260 C   0  0  0  0  0  0  0  0  0  0  0  0
    8.9890    9.3850    1.4420 C   0  0  0  0  0  1  0  0  0  0  0  0
    9.3800    8.8260    2.6920 O   0  0  0  0  0  0  0  0  0  0  0  0
   11.2780    7.7810    4.6670 O   0  0  0  0  0  0  0  0  0  0  0  0
   11.6810    6.8460    5.6720 C   0  0  0  0  0  1  0  0  0  0  0  0
  1  2  2  0  0  0  0
  1  6  1  0  0  0  0
  2  3  1  0  0  0  0
  3  4  2  0  0  0  0
  4  9  1  0  0  0  0
  5  4  1  0  0  0  0
  5  7  1  0  0  0  0
  6  5  2  0  0  0  0
  7  8  2  0  0  0  0
  8 10  1  0  0  0  0
  9  8  1  0  0  0  0
  9 16  1  0  0  0  0
 10 11  2  0  0  0  0
 10 15  1  0  0  0  0
 11 12  1  0  0  0  0
 12 13  2  0  0  0  0
 14 13  1  0  0  0  0
 15 14  2  0  0  0  0
 16 17  1  0  0  0  0
 16 21  1  0  0  0  0
 17 18  1  0  0  0  0
 18 19  1  0  0  0  0
 20 19  1  0  0  0  0
 21 20  1  0  0  0  0
 22 23  1  0  0  0  0
 23  1  1  0  0  0  0
 24 23  2  0  0  0  0
 25 22  1  0  0  0  0
 26 27  1  6  0  0  0
 26 22  1  0  0  0  0
 26 31  1  0  0  0  0
 28 35  1  0  0  0  0
 28 33  1  0  0  0  0
 29 28  2  0  0  0  0
 30 29  1  0  0  0  0
 30 31  2  0  0  0  0
 31 32  1  0  0  0  0
 32 33  2  0  0  0  0
 33 36  1  0  0  0  0
 34 35  1  0  0  0  0
 36 37  1  0  0  0  0
M  END
>  <minimizedAffinity>
-6.46210098

$$$$
