
 OpenBabel09122222393D

 37 41  0  0  1  0  0  0  0  0999 V2000
    7.2850    2.7050   11.3420 C   0  0  0  0  0  0  0  0  0  0  0  0
    8.5820    2.5600   11.8400 C   0  0  0  0  0  3  0  0  0  0  0  0
    9.6860    2.5890   10.9800 C   0  0  0  0  0  3  0  0  0  0  0  0
    9.4340    2.7720    9.6110 C   0  0  0  0  0  0  0  0  0  0  0  0
    8.1490    2.9480    9.1140 C   0  0  0  0  0  0  0  0  0  0  0  0
    7.0500    2.9360    9.9820 C   0  0  0  0  0  3  0  0  0  0  0  0
    8.1700    3.1090    7.7610 N   0  0  0  0  0  0  0  0  0  0  0  0
    9.4440    3.0920    7.3900 C   0  0  0  0  0  0  0  0  0  0  0  0
   10.2530    2.8260    8.4890 N   0  0  0  0  0  0  0  0  0  0  0  0
    9.8590    3.3050    5.9970 C   0  0  0  0  0  0  0  0  0  0  0  0
   10.2590    4.5690    5.5690 C   0  0  0  0  0  3  0  0  0  0  0  0
   10.6860    4.7330    4.2540 C   0  0  0  0  0  3  0  0  0  0  0  0
   10.7140    3.6310    3.4090 C   0  0  0  0  0  3  0  0  0  0  0  0
   10.3140    2.4080    3.9180 C   0  0  0  0  0  3  0  0  0  0  0  0
    9.8880    2.2210    5.1880 N   0  0  0  0  0  0  0  0  0  0  0  0
   11.6910    2.5600    8.5460 C   0  0  0  0  0  3  0  0  0  0  0  0
   12.1560    1.2910    7.8090 C   0  0  0  0  0  2  0  0  0  0  0  0
   13.6510    1.0480    8.0130 C   0  0  0  0  0  2  0  0  0  0  0  0
   14.4750    2.2760    7.6370 C   0  0  0  0  0  2  0  0  0  0  0  0
   14.0370    3.5080    8.4230 C   0  0  0  0  0  2  0  0  0  0  0  0
   12.5470    3.7990    8.2440 C   0  0  0  0  0  2  0  0  0  0  0  0
    5.5410    1.4630   12.5590 N   0  0  0  0  0  0  0  0  0  0  0  0
    6.1570    2.6560   12.2900 C   0  0  0  0  0  0  0  0  0  0  0  0
    5.8010    3.6840   12.8580 O   0  0  0  0  0  0  0  0  0  0  0  0
    4.7440    1.5630   13.1740 H   0  0  0  0  0  0  0  0  0  0  0  0
    5.8970    0.1150   12.1240 C   0  0  1  0  0  3  0  0  0  0  0  0
    5.4770   -0.9040   13.1850 C   0  0  0  0  0  1  0  0  0  0  0  0
    4.1480   -0.8150    8.2590 C   0  0  0  0  0  0  0  0  0  0  0  0
    3.3310   -0.4590    9.3330 C   0  0  0  0  0  3  0  0  0  0  0  0
    3.8840   -0.1580   10.5810 C   0  0  0  0  0  3  0  0  0  0  0  0
    5.2730   -0.2060   10.7800 C   0  0  0  0  0  0  0  0  0  0  0  0
    6.0890   -0.5530    9.6930 C   0  0  0  0  0  3  0  0  0  0  0  0
    5.5340   -0.8170    8.4360 C   0  0  0  0  0  0  0  0  0  0  0  0
    2.0730   -1.2070    7.2240 C   0  0  0  0  0  1  0  0  0  0  0  0
    3.4850   -1.0760    7.0900 O   0  0  0  0  0  0  0  0  0  0  0  0
    6.3990   -1.0830    7.4060 O   0  0  0  0  0  0  0  0  0  0  0  0
    7.6910   -0.5560    7.7220 C   0  0  0  0  0  1  0  0  0  0  0  0
  1  2  1  0  0  0  0
  1 23  1  0  0  0  0
  3  2  2  0  0  0  0
  4  3  1  0  0  0  0
  5  4  2  0  0  0  0
  5  6  1  0  0  0  0
  6  1  2  0  0  0  0
  7  5  1  0  0  0  0
  8  7  2  0  0  0  0
  8  9  1  0  0  0  0
  9 16  1  0  0  0  0
  9  4  1  0  0  0  0
 10  8  1  0  0  0  0
 11 10  1  0  0  0  0
 12 11  2  0  0  0  0
 13 14  2  0  0  0  0
 13 12  1  0  0  0  0
 14 15  1  0  0  0  0
 15 10  2  0  0  0  0
 17 18  1  0  0  0  0
 17 16  1  0  0  0  0
 19 18  1  0  0  0  0
 19 20  1  0  0  0  0
 21 20  1  0  0  0  0
 21 16  1  0  0  0  0
 22 25  1  0  0  0  0
 23 22  1  0  0  0  0
 23 24  2  0  0  0  0
 26 22  1  0  0  0  0
 26 27  1  1  0  0  0
 28 33  2  0  0  0  0
 28 29  1  0  0  0  0
 29 30  2  0  0  0  0
 30 31  1  0  0  0  0
 31 26  1  0  0  0  0
 32 31  2  0  0  0  0
 33 32  1  0  0  0  0
 35 34  1  0  0  0  0
 35 28  1  0  0  0  0
 36 37  1  0  0  0  0
 36 33  1  0  0  0  0
M  END
>  <minimizedAffinity>
-6.40022898

$$$$
