
 OpenBabel09122222393D

 37 41  0  0  1  0  0  0  0  0999 V2000
    9.5680   -2.6090    9.4150 C   0  0  0  0  0  0  0  0  0  0  0  0
    8.9250   -2.7290   10.6490 C   0  0  0  0  0  3  0  0  0  0  0  0
    7.5310   -2.6320   10.7430 C   0  0  0  0  0  3  0  0  0  0  0  0
    6.8180   -2.4160    9.5540 C   0  0  0  0  0  0  0  0  0  0  0  0
    7.4490   -2.3280    8.3190 C   0  0  0  0  0  0  0  0  0  0  0  0
    8.8420   -2.4430    8.2300 C   0  0  0  0  0  3  0  0  0  0  0  0
    6.5410   -2.1220    7.3240 N   0  0  0  0  0  0  0  0  0  0  0  0
    5.3410   -2.1290    7.8890 C   0  0  0  0  0  0  0  0  0  0  0  0
    5.4680   -2.2460    9.2680 N   0  0  0  0  0  0  0  0  0  0  0  0
    4.1040   -2.0000    7.1070 C   0  0  0  0  0  0  0  0  0  0  0  0
    3.1720   -1.0150    7.4240 C   0  0  0  0  0  3  0  0  0  0  0  0
    2.0290   -0.8890    6.6400 C   0  0  0  0  0  3  0  0  0  0  0  0
    1.8540   -1.7400    5.5570 C   0  0  0  0  0  3  0  0  0  0  0  0
    2.8350   -2.6810    5.3020 C   0  0  0  0  0  3  0  0  0  0  0  0
    3.9510   -2.8310    6.0500 N   0  0  0  0  0  0  0  0  0  0  0  0
    4.4460   -2.1450   10.3120 C   0  0  0  0  0  3  0  0  0  0  0  0
    4.3010   -3.3830   11.2150 C   0  0  0  0  0  2  0  0  0  0  0  0
    3.1460   -3.2160   12.2020 C   0  0  0  0  0  2  0  0  0  0  0  0
    3.2740   -1.9230   13.0020 C   0  0  0  0  0  2  0  0  0  0  0  0
    3.3560   -0.7040   12.0890 C   0  0  0  0  0  2  0  0  0  0  0  0
    4.5040   -0.8190   11.0860 C   0  0  0  0  0  2  0  0  0  0  0  0
   11.8030   -1.5760    9.4780 N   0  0  0  0  0  0  0  0  0  0  0  0
   11.0380   -2.7070    9.3740 C   0  0  0  0  0  0  0  0  0  0  0  0
   11.5660   -3.8110    9.2830 O   0  0  0  0  0  0  0  0  0  0  0  0
   12.7920   -1.7610    9.3750 H   0  0  0  0  0  0  0  0  0  0  0  0
   11.3940   -0.2010    9.7480 C   0  0  1  0  0  3  0  0  0  0  0  0
   12.5320    0.5580   10.4330 C   0  0  0  0  0  1  0  0  0  0  0  0
   10.1140    1.8170    6.1200 C   0  0  0  0  0  0  0  0  0  0  0  0
   11.3450    1.1600    6.1630 C   0  0  0  0  0  3  0  0  0  0  0  0
   11.7660    0.5080    7.3260 C   0  0  0  0  0  3  0  0  0  0  0  0
   10.9590    0.4980    8.4740 C   0  0  0  0  0  0  0  0  0  0  0  0
    9.7170    1.1500    8.4200 C   0  0  0  0  0  3  0  0  0  0  0  0
    9.2840    1.7690    7.2430 C   0  0  0  0  0  0  0  0  0  0  0  0
   10.2890    3.7440    4.7830 C   0  0  0  0  0  1  0  0  0  0  0  0
    9.8160    2.4070    4.9210 O   0  0  0  0  0  0  0  0  0  0  0  0
    8.0310    2.3260    7.2460 O   0  0  0  0  0  0  0  0  0  0  0  0
    8.0970    3.6420    7.8050 C   0  0  0  0  0  1  0  0  0  0  0  0
  1  2  1  0  0  0  0
  2  3  2  0  0  0  0
  4  3  1  0  0  0  0
  5  4  2  0  0  0  0
  6  5  1  0  0  0  0
  6  1  2  0  0  0  0
  7  8  2  0  0  0  0
  7  5  1  0  0  0  0
  8  9  1  0  0  0  0
  9  4  1  0  0  0  0
  9 16  1  0  0  0  0
 10 11  1  0  0  0  0
 10  8  1  0  0  0  0
 12 11  2  0  0  0  0
 13 12  1  0  0  0  0
 14 13  2  0  0  0  0
 14 15  1  0  0  0  0
 15 10  2  0  0  0  0
 16 21  1  0  0  0  0
 16 17  1  0  0  0  0
 17 18  1  0  0  0  0
 18 19  1  0  0  0  0
 20 19  1  0  0  0  0
 21 20  1  0  0  0  0
 22 26  1  0  0  0  0
 23  1  1  0  0  0  0
 23 22  1  0  0  0  0
 24 23  2  0  0  0  0
 25 22  1  0  0  0  0
 26 27  1  6  0  0  0
 28 29  2  0  0  0  0
 28 33  1  0  0  0  0
 29 30  1  0  0  0  0
 30 31  2  0  0  0  0
 31 26  1  0  0  0  0
 32 31  1  0  0  0  0
 33 36  1  0  0  0  0
 33 32  2  0  0  0  0
 34 35  1  0  0  0  0
 35 28  1  0  0  0  0
 36 37  1  0  0  0  0
M  END
>  <minimizedAffinity>
-6.65535116

$$$$
