
 OpenBabel09132204463D

 42 44  0  0  1  0  0  0  0  0999 V2000
    3.2450  -11.1270    1.9500 C   0  0  1  0  0  3  0  0  0  0  0  0
    4.1720  -12.1300    1.4740 O   0  0  0  0  0  0  0  0  0  0  0  0
    3.5760  -12.7800    0.3240 C   0  0  2  0  0  3  0  0  0  0  0  0
    2.0620  -12.6600    0.5050 C   0  0  2  0  0  0  0  0  0  0  0  0
    1.4200  -13.7330    1.3740 C   0  0  0  0  0  1  0  0  0  0  0  0
    1.4090  -12.6400   -0.6930 F   0  0  0  0  0  0  0  0  0  0  0  0
    1.9660  -11.2670    1.1160 C   0  0  2  0  0  3  0  0  0  0  0  0
    4.0930  -14.1340    0.2010 N   0  0  0  0  0  0  0  0  0  0  0  0
    4.1630  -14.8950   -0.9430 C   0  0  0  0  0  3  0  0  0  0  0  0
    4.7160  -16.1140   -0.6100 C   0  0  0  0  0  3  0  0  0  0  0  0
    4.9920  -16.0960    0.7840 C   0  0  0  0  0  0  0  0  0  0  0  0
    5.5340  -16.9750    1.7300 C   0  0  1  0  0  3  0  0  0  0  0  0
    5.9700  -18.2430    1.4270 N   0  0  0  0  0  0  0  0  0  0  0  0
    5.6400  -16.5660    3.0100 N   0  0  0  0  0  0  0  0  0  0  0  0
    5.2200  -15.3350    3.3430 C   0  0  0  0  0  0  0  0  0  0  0  0
    5.3660  -14.9740    4.6530 N   0  0  0  0  0  0  0  0  0  0  0  0
    4.6850  -14.4240    2.5220 N   0  0  0  0  0  2  0  0  0  0  0  0
    4.5940  -14.8560    1.2570 C   0  0  0  0  0  0  0  0  0  0  0  0
    5.9060  -18.6160    0.4960 H   0  0  0  0  0  0  0  0  0  0  0  0
    6.3320  -18.7920    2.1930 H   0  0  0  0  0  0  0  0  0  0  0  0
    5.1330  -14.0310    4.9060 H   0  0  0  0  0  0  0  0  0  0  0  0
    5.8300  -15.6240    5.2620 H   0  0  0  0  0  0  0  0  0  0  0  0
    2.0090  -10.2890    0.0560 O   0  0  0  0  0  0  0  0  0  0  0  0
    1.4010  -10.6120   -0.6390 H   0  0  0  0  0  0  0  0  0  0  0  0
    3.0810  -11.2870    3.4650 C   0  0  0  0  0  2  0  0  0  0  0  0
    4.3340  -11.2920    4.1340 O   0  0  0  0  0  0  0  0  0  0  0  0
    4.9180   -9.8930    4.6930 P   0  0  2  0  0  0  0  0  0  0  0  0
    5.7120   -9.1340    3.6760 O   0  0  0  0  0  0  0  0  0  0  0  0
    5.8050  -10.3870    5.9480 O   0  0  0  0  0  0  0  0  0  0  0  0
    5.7170  -11.7360    6.3570 C   0  0  0  0  0  1  0  0  0  0  0  0
    3.6480   -9.2050    5.3740 O   0  0  0  0  0  0  0  0  0  0  0  0
    3.2810   -7.5190    5.2490 P   0  0  2  0  0  0  0  0  0  0  0  0
    3.8650   -7.2890    6.6440 O   0  0  0  0  0  0  0  0  0  0  0  0
    1.6710   -7.8470    5.3220 O   0  0  0  0  0  0  0  0  0  0  0  0
    1.2360   -9.0740    5.8920 C   0  0  0  0  0  1  0  0  0  0  0  0
    2.9150   -5.8330    5.1230 O   0  0  0  0  0  0  0  0  0  0  0  0
    3.8280   -5.0540    4.0620 P   0  0  0  0  0  0  0  0  0  0  0  0
    3.2980   -3.7420    3.5790 O   0  0  0  0  0  0  0  0  0  0  0  0
    5.4600   -3.9060    5.6850 C   0  0  0  0  0  1  0  0  0  0  0  0
    5.2610   -4.9900    4.7960 O   0  0  0  0  0  0  0  0  0  0  0  0
    4.0850   -6.1460    2.9070 O   0  0  0  0  0  0  0  0  0  0  0  0
    5.1930   -5.9190    2.0560 C   0  0  0  0  0  1  0  0  0  0  0  0
  1 25  1  1  0  0  0
  2  1  1  0  0  0  0
  3  8  1  1  0  0  0
  3  4  1  0  0  0  0
  3  2  1  0  0  0  0
  4  7  1  0  0  0  0
  4  5  1  1  0  0  0
  6  4  1  0  0  0  0
  7 23  1  6  0  0  0
  7  1  1  0  0  0  0
  8 18  1  0  0  0  0
  9 10  2  0  0  0  0
  9  8  1  0  0  0  0
 10 11  1  0  0  0  0
 11 18  2  0  0  0  0
 11 12  1  0  0  0  0
 12 13  1  6  0  0  0
 12 14  1  0  0  0  0
 13 20  1  0  0  0  0
 14 15  2  0  0  0  0
 15 16  1  0  0  0  0
 16 21  1  0  0  0  0
 16 22  1  0  0  0  0
 17 15  1  0  0  0  0
 18 17  1  0  0  0  0
 19 13  1  0  0  0  0
 24 23  1  0  0  0  0
 25 26  1  0  0  0  0
 26 27  1  0  0  0  0
 27 28  2  6  0  0  0
 27 31  1  0  0  0  0
 27 29  1  0  0  0  0
 29 30  1  0  0  0  0
 32 34  1  0  0  0  0
 32 31  1  0  0  0  0
 32 33  2  1  0  0  0
 34 35  1  0  0  0  0
 36 32  1  0  0  0  0
 37 40  1  0  0  0  0
 37 36  1  0  0  0  0
 38 37  2  0  0  0  0
 40 39  1  0  0  0  0
 41 37  1  0  0  0  0
 42 41  1  0  0  0  0
M  END
>  <minimizedAffinity>
-6.01038504

$$$$
