
 OpenBabel09132204463D

 42 44  0  0  1  0  0  0  0  0999 V2000
    4.1850   -4.4010    6.7230 C   0  0  1  0  0  3  0  0  0  0  0  0
    4.5470   -5.6140    6.0210 O   0  0  0  0  0  0  0  0  0  0  0  0
    4.2850   -5.4090    4.6100 C   0  0  2  0  0  3  0  0  0  0  0  0
    3.1670   -4.3690    4.5310 C   0  0  2  0  0  0  0  0  0  0  0  0
    1.7520   -4.9200    4.6570 C   0  0  0  0  0  1  0  0  0  0  0  0
    3.2350   -3.6370    3.3820 F   0  0  0  0  0  0  0  0  0  0  0  0
    3.5530   -3.4590    5.6920 C   0  0  2  0  0  3  0  0  0  0  0  0
    4.0090   -6.6850    3.9700 N   0  0  0  0  0  0  0  0  0  0  0  0
    3.5090   -7.8210    4.5640 C   0  0  0  0  0  3  0  0  0  0  0  0
    3.4070   -8.7980    3.5950 C   0  0  0  0  0  3  0  0  0  0  0  0
    3.8610   -8.2390    2.3700 C   0  0  0  0  0  0  0  0  0  0  0  0
    4.0160   -8.6700    1.0470 C   0  0  1  0  0  3  0  0  0  0  0  0
    3.7060   -9.9390    0.6180 N   0  0  0  0  0  0  0  0  0  0  0  0
    4.4930   -7.8010    0.1340 N   0  0  0  0  0  0  0  0  0  0  0  0
    4.8110   -6.5540    0.5160 C   0  0  0  0  0  0  0  0  0  0  0  0
    5.2770   -5.7170   -0.4570 N   0  0  0  0  0  0  0  0  0  0  0  0
    4.7070   -6.0470    1.7500 N   0  0  0  0  0  2  0  0  0  0  0  0
    4.2280   -6.9300    2.6360 C   0  0  0  0  0  0  0  0  0  0  0  0
    3.3600  -10.6410    1.2500 H   0  0  0  0  0  0  0  0  0  0  0  0
    3.8690  -10.1400   -0.3570 H   0  0  0  0  0  0  0  0  0  0  0  0
    5.4450   -4.7580   -0.2090 H   0  0  0  0  0  0  0  0  0  0  0  0
    5.2930   -6.0660   -1.3990 H   0  0  0  0  0  0  0  0  0  0  0  0
    4.5660   -2.5360    5.2430 O   0  0  0  0  0  0  0  0  0  0  0  0
    4.2640   -2.1980    4.3750 H   0  0  0  0  0  0  0  0  0  0  0  0
    3.3090   -4.7710    7.9240 C   0  0  0  0  0  2  0  0  0  0  0  0
    2.6770   -6.0300    7.7490 O   0  0  0  0  0  0  0  0  0  0  0  0
    1.7500   -6.6030    8.9420 P   0  0  2  0  0  0  0  0  0  0  0  0
    1.0010   -5.5350    9.6750 O   0  0  0  0  0  0  0  0  0  0  0  0
    2.8360   -7.3610    9.8650 O   0  0  0  0  0  0  0  0  0  0  0  0
    3.5100   -8.4860    9.3410 C   0  0  0  0  0  1  0  0  0  0  0  0
    0.9450   -7.7940    8.2470 O   0  0  0  0  0  0  0  0  0  0  0  0
   -0.7470   -7.7370    7.8930 P   0  0  2  0  0  0  0  0  0  0  0  0
   -1.0650   -7.9770    9.3700 O   0  0  0  0  0  0  0  0  0  0  0  0
   -0.6390   -9.1560    7.0690 O   0  0  0  0  0  0  0  0  0  0  0  0
    0.3670  -10.0950    7.4250 C   0  0  0  0  0  1  0  0  0  0  0  0
   -2.4400   -7.6790    7.5380 O   0  0  0  0  0  0  0  0  0  0  0  0
   -2.7690   -7.1530    6.0620 P   0  0  0  0  0  0  0  0  0  0  0  0
   -1.6430   -6.4880    5.3360 O   0  0  0  0  0  0  0  0  0  0  0  0
   -2.6920   -8.9140    4.1890 C   0  0  0  0  0  1  0  0  0  0  0  0
   -3.3790   -8.4570    5.3400 O   0  0  0  0  0  0  0  0  0  0  0  0
   -4.0760   -6.2350    6.2680 O   0  0  0  0  0  0  0  0  0  0  0  0
   -4.5820   -6.1390    7.5850 C   0  0  0  0  0  1  0  0  0  0  0  0
  1 25  1  1  0  0  0
  2  1  1  0  0  0  0
  3  8  1  1  0  0  0
  3  2  1  0  0  0  0
  4  3  1  0  0  0  0
  4  5  1  1  0  0  0
  4  7  1  0  0  0  0
  6  4  1  0  0  0  0
  7 23  1  6  0  0  0
  7  1  1  0  0  0  0
  8  9  1  0  0  0  0
 10  9  2  0  0  0  0
 11 18  2  0  0  0  0
 11 10  1  0  0  0  0
 12 13  1  6  0  0  0
 12 11  1  0  0  0  0
 13 19  1  0  0  0  0
 14 15  2  0  0  0  0
 14 12  1  0  0  0  0
 15 17  1  0  0  0  0
 16 21  1  0  0  0  0
 16 15  1  0  0  0  0
 17 18  1  0  0  0  0
 18  8  1  0  0  0  0
 20 13  1  0  0  0  0
 22 16  1  0  0  0  0
 24 23  1  0  0  0  0
 26 25  1  0  0  0  0
 26 27  1  0  0  0  0
 27 28  2  1  0  0  0
 27 29  1  0  0  0  0
 30 29  1  0  0  0  0
 31 27  1  0  0  0  0
 32 31  1  0  0  0  0
 32 33  2  1  0  0  0
 34 35  1  0  0  0  0
 34 32  1  0  0  0  0
 36 32  1  0  0  0  0
 37 41  1  0  0  0  0
 37 36  1  0  0  0  0
 38 37  2  0  0  0  0
 39 40  1  0  0  0  0
 40 37  1  0  0  0  0
 41 42  1  0  0  0  0
M  END
>  <minimizedAffinity>
-6.47796822

$$$$
