
 OpenBabel09132204463D

 42 44  0  0  1  0  0  0  0  0999 V2000
    3.5600   -9.1060    2.3230 C   0  0  1  0  0  3  0  0  0  0  0  0
    4.4590  -10.2370    2.2470 O   0  0  0  0  0  0  0  0  0  0  0  0
    3.7440  -11.3360    1.6290 C   0  0  2  0  0  3  0  0  0  0  0  0
    2.2650  -11.1100    1.9410 C   0  0  2  0  0  0  0  0  0  0  0  0
    1.7940  -11.6360    3.2910 C   0  0  0  0  0  1  0  0  0  0  0  0
    1.4570  -11.6380    0.9770 F   0  0  0  0  0  0  0  0  0  0  0  0
    2.1890   -9.5910    1.8380 C   0  0  2  0  0  3  0  0  0  0  0  0
    4.3010  -12.6010    2.0810 N   0  0  0  0  0  0  0  0  0  0  0  0
    4.9880  -12.8360    3.2490 C   0  0  0  0  0  3  0  0  0  0  0  0
    5.3380  -14.1700    3.2770 C   0  0  0  0  0  3  0  0  0  0  0  0
    4.8480  -14.7690    2.0850 C   0  0  0  0  0  0  0  0  0  0  0  0
    4.8560  -16.0420    1.5040 C   0  0  1  0  0  3  0  0  0  0  0  0
    5.4500  -17.1390    2.0830 N   0  0  0  0  0  0  0  0  0  0  0  0
    4.2510  -16.2150    0.3120 N   0  0  0  0  0  0  0  0  0  0  0  0
    3.6640  -15.1670   -0.2860 C   0  0  0  0  0  0  0  0  0  0  0  0
    3.0570  -15.4080   -1.4860 N   0  0  0  0  0  0  0  0  0  0  0  0
    3.6050  -13.9130    0.1780 N   0  0  0  0  0  2  0  0  0  0  0  0
    4.2110  -13.7710    1.3650 C   0  0  0  0  0  0  0  0  0  0  0  0
    5.9310  -17.0760    2.9630 H   0  0  0  0  0  0  0  0  0  0  0  0
    5.4020  -18.0050    1.5660 H   0  0  0  0  0  0  0  0  0  0  0  0
    2.5440  -14.6560   -1.9100 H   0  0  0  0  0  0  0  0  0  0  0  0
    3.0350  -16.3590   -1.8100 H   0  0  0  0  0  0  0  0  0  0  0  0
    2.0450   -9.2250    0.4500 O   0  0  0  0  0  0  0  0  0  0  0  0
    1.3640   -9.8210    0.0790 H   0  0  0  0  0  0  0  0  0  0  0  0
    3.6080   -8.5340    3.7430 C   0  0  0  0  0  2  0  0  0  0  0  0
    4.5540   -7.4810    3.8570 O   0  0  0  0  0  0  0  0  0  0  0  0
    4.0110   -5.9710    4.0480 P   0  0  2  0  0  0  0  0  0  0  0  0
    2.5600   -5.9040    4.4050 O   0  0  0  0  0  0  0  0  0  0  0  0
    4.3390   -5.3220    2.6060 O   0  0  0  0  0  0  0  0  0  0  0  0
    5.5110   -5.7220    1.9270 C   0  0  0  0  0  1  0  0  0  0  0  0
    5.0930   -5.3080    5.0170 O   0  0  0  0  0  0  0  0  0  0  0  0
    4.6930   -4.2580    6.3330 P   0  0  2  0  0  0  0  0  0  0  0  0
    6.0750   -3.6090    6.2350 O   0  0  0  0  0  0  0  0  0  0  0  0
    4.7060   -5.5330    7.3730 O   0  0  0  0  0  0  0  0  0  0  0  0
    5.3810   -5.4100    8.6180 C   0  0  0  0  0  1  0  0  0  0  0  0
    4.2930   -3.2090    7.6490 O   0  0  0  0  0  0  0  0  0  0  0  0
    3.2890   -2.0280    7.2470 P   0  0  0  0  0  0  0  0  0  0  0  0
    2.7630   -2.0620    5.8480 O   0  0  0  0  0  0  0  0  0  0  0  0
    2.2040   -3.2340    9.2430 C   0  0  0  0  0  1  0  0  0  0  0  0
    2.1710   -2.0930    8.4050 O   0  0  0  0  0  0  0  0  0  0  0  0
    4.1000   -0.6910    7.6320 O   0  0  0  0  0  0  0  0  0  0  0  0
    5.0620   -0.8080    8.6620 C   0  0  0  0  0  1  0  0  0  0  0  0
  1 25  1  1  0  0  0
  2  1  1  0  0  0  0
  3  4  1  0  0  0  0
  3  8  1  1  0  0  0
  3  2  1  0  0  0  0
  4  5  1  1  0  0  0
  6  4  1  0  0  0  0
  7 23  1  6  0  0  0
  7  4  1  0  0  0  0
  7  1  1  0  0  0  0
  8  9  1  0  0  0  0
  9 10  2  0  0  0  0
 11 10  1  0  0  0  0
 12 13  1  1  0  0  0
 12 11  1  0  0  0  0
 13 19  1  0  0  0  0
 14 12  1  0  0  0  0
 15 17  1  0  0  0  0
 15 14  2  0  0  0  0
 16 15  1  0  0  0  0
 17 18  1  0  0  0  0
 18  8  1  0  0  0  0
 18 11  2  0  0  0  0
 20 13  1  0  0  0  0
 21 16  1  0  0  0  0
 22 16  1  0  0  0  0
 24 23  1  0  0  0  0
 25 26  1  0  0  0  0
 26 27  1  0  0  0  0
 27 28  2  1  0  0  0
 27 31  1  0  0  0  0
 29 27  1  0  0  0  0
 30 29  1  0  0  0  0
 31 32  1  0  0  0  0
 32 33  2  1  0  0  0
 32 34  1  0  0  0  0
 32 36  1  0  0  0  0
 34 35  1  0  0  0  0
 37 41  1  0  0  0  0
 37 36  1  0  0  0  0
 37 40  1  0  0  0  0
 38 37  2  0  0  0  0
 40 39  1  0  0  0  0
 41 42  1  0  0  0  0
M  END
>  <minimizedAffinity>
-6.21458483

$$$$
