
 OpenBabel09132204463D

 42 44  0  0  1  0  0  0  0  0999 V2000
   -0.4640   -8.6340    6.2850 C   0  0  1  0  0  3  0  0  0  0  0  0
   -1.4710   -9.3130    7.0710 O   0  0  0  0  0  0  0  0  0  0  0  0
   -2.7210   -9.2590    6.3390 C   0  0  2  0  0  3  0  0  0  0  0  0
   -2.6490   -8.0060    5.4660 C   0  0  2  0  0  0  0  0  0  0  0  0
   -3.0580   -6.7080    6.1500 C   0  0  0  0  0  1  0  0  0  0  0  0
   -3.3920   -8.1370    4.3300 F   0  0  0  0  0  0  0  0  0  0  0  0
   -1.1770   -8.0290    5.0700 C   0  0  2  0  0  3  0  0  0  0  0  0
   -3.8390   -9.3200    7.2680 N   0  0  0  0  0  0  0  0  0  0  0  0
   -3.9680   -8.6400    8.4570 C   0  0  0  0  0  3  0  0  0  0  0  0
   -5.1770   -8.9930    9.0190 C   0  0  0  0  0  3  0  0  0  0  0  0
   -5.8060   -9.9190    8.1450 C   0  0  0  0  0  0  0  0  0  0  0  0
   -7.0030  -10.6440    8.1140 C   0  0  1  0  0  3  0  0  0  0  0  0
   -7.9560  -10.5820    9.1040 N   0  0  0  0  0  0  0  0  0  0  0  0
   -7.2470  -11.4490    7.0610 N   0  0  0  0  0  0  0  0  0  0  0  0
   -6.3380  -11.5380    6.0770 C   0  0  0  0  0  0  0  0  0  0  0  0
   -6.6490  -12.3600    5.0310 N   0  0  0  0  0  0  0  0  0  0  0  0
   -5.1660  -10.8970    6.0130 N   0  0  0  0  0  2  0  0  0  0  0  0
   -4.9510  -10.1030    7.0700 C   0  0  0  0  0  0  0  0  0  0  0  0
   -7.8300  -10.0140    9.9240 H   0  0  0  0  0  0  0  0  0  0  0  0
   -8.7750  -11.1570    8.9800 H   0  0  0  0  0  0  0  0  0  0  0  0
   -6.0200  -12.3790    4.2480 H   0  0  0  0  0  0  0  0  0  0  0  0
   -7.5560  -12.7920    5.0360 H   0  0  0  0  0  0  0  0  0  0  0  0
   -1.0080   -8.9270    3.9540 O   0  0  0  0  0  0  0  0  0  0  0  0
   -1.7290   -8.7200    3.3250 H   0  0  0  0  0  0  0  0  0  0  0  0
    0.2830   -7.6480    7.1880 C   0  0  0  0  0  2  0  0  0  0  0  0
    1.1250   -6.7820    6.4420 O   0  0  0  0  0  0  0  0  0  0  0  0
    2.7250   -6.9780    6.5500 P   0  0  2  0  0  0  0  0  0  0  0  0
    3.1920   -8.3130    6.0610 O   0  0  0  0  0  0  0  0  0  0  0  0
    2.9770   -6.7600    8.1290 O   0  0  0  0  0  0  0  0  0  0  0  0
    2.8210   -5.4650    8.6730 C   0  0  0  0  0  1  0  0  0  0  0  0
    3.3080   -5.6480    5.8860 O   0  0  0  0  0  0  0  0  0  0  0  0
    3.9380   -5.5690    4.2760 P   0  0  2  0  0  0  0  0  0  0  0  0
    5.2470   -4.9890    4.8170 O   0  0  0  0  0  0  0  0  0  0  0  0
    2.8690   -4.3780    3.8990 O   0  0  0  0  0  0  0  0  0  0  0  0
    3.2440   -3.0200    4.0840 C   0  0  0  0  0  1  0  0  0  0  0  0
    4.5680   -5.4910    2.6670 O   0  0  0  0  0  0  0  0  0  0  0  0
    5.1360   -6.8900    2.1310 P   0  0  0  0  0  0  0  0  0  0  0  0
    5.7960   -7.7630    3.1490 O   0  0  0  0  0  0  0  0  0  0  0  0
    3.5570   -8.8790    1.7280 C   0  0  0  0  0  1  0  0  0  0  0  0
    3.8620   -7.5380    1.3890 O   0  0  0  0  0  0  0  0  0  0  0  0
    6.0740   -6.4690    0.8910 O   0  0  0  0  0  0  0  0  0  0  0  0
    5.4390   -6.3320   -0.3660 C   0  0  0  0  0  1  0  0  0  0  0  0
  1  2  1  0  0  0  0
  1 25  1  1  0  0  0
  3  2  1  0  0  0  0
  3  8  1  1  0  0  0
  4  5  1  1  0  0  0
  4  3  1  0  0  0  0
  6  4  1  0  0  0  0
  7 23  1  6  0  0  0
  7  4  1  0  0  0  0
  7  1  1  0  0  0  0
  8  9  1  0  0  0  0
  9 10  2  0  0  0  0
 11 10  1  0  0  0  0
 12 11  1  0  0  0  0
 12 13  1  6  0  0  0
 13 19  1  0  0  0  0
 14 12  1  0  0  0  0
 15 14  2  0  0  0  0
 16 22  1  0  0  0  0
 16 15  1  0  0  0  0
 17 15  1  0  0  0  0
 17 18  1  0  0  0  0
 18  8  1  0  0  0  0
 18 11  2  0  0  0  0
 20 13  1  0  0  0  0
 21 16  1  0  0  0  0
 24 23  1  0  0  0  0
 26 27  1  0  0  0  0
 26 25  1  0  0  0  0
 27 28  2  6  0  0  0
 27 29  1  0  0  0  0
 29 30  1  0  0  0  0
 31 27  1  0  0  0  0
 32 33  2  1  0  0  0
 32 31  1  0  0  0  0
 34 35  1  0  0  0  0
 34 32  1  0  0  0  0
 36 32  1  0  0  0  0
 37 36  1  0  0  0  0
 37 38  2  0  0  0  0
 40 39  1  0  0  0  0
 40 37  1  0  0  0  0
 41 37  1  0  0  0  0
 42 41  1  0  0  0  0
M  END
>  <minimizedAffinity>
-6.08202267

$$$$
