
 OpenBabel09132204463D

 42 44  0  0  1  0  0  0  0  0999 V2000
    3.4910   -9.1980    2.3230 C   0  0  1  0  0  3  0  0  0  0  0  0
    4.3980  -10.3220    2.2450 O   0  0  0  0  0  0  0  0  0  0  0  0
    3.6980  -11.4190    1.6060 C   0  0  2  0  0  3  0  0  0  0  0  0
    2.2130  -11.2060    1.9030 C   0  0  2  0  0  0  0  0  0  0  0  0
    1.7300  -11.7500    3.2410 C   0  0  0  0  0  1  0  0  0  0  0  0
    1.4200  -11.7280    0.9240 F   0  0  0  0  0  0  0  0  0  0  0  0
    2.1290   -9.6860    1.8160 C   0  0  2  0  0  3  0  0  0  0  0  0
    4.2570  -12.6860    2.0510 N   0  0  0  0  0  0  0  0  0  0  0  0
    4.9440  -12.9250    3.2190 C   0  0  0  0  0  3  0  0  0  0  0  0
    5.2970  -14.2590    3.2380 C   0  0  0  0  0  3  0  0  0  0  0  0
    4.8100  -14.8510    2.0420 C   0  0  0  0  0  0  0  0  0  0  0  0
    4.8220  -16.1210    1.4530 C   0  0  1  0  0  3  0  0  0  0  0  0
    5.4180  -17.2200    2.0260 N   0  0  0  0  0  0  0  0  0  0  0  0
    4.2190  -16.2890    0.2600 N   0  0  0  0  0  0  0  0  0  0  0  0
    3.6300  -15.2380   -0.3320 C   0  0  0  0  0  0  0  0  0  0  0  0
    3.0240  -15.4740   -1.5340 N   0  0  0  0  0  0  0  0  0  0  0  0
    3.5670  -13.9870    0.1400 N   0  0  0  0  0  2  0  0  0  0  0  0
    4.1720  -13.8510    1.3280 C   0  0  0  0  0  0  0  0  0  0  0  0
    5.8990  -17.1620    2.9080 H   0  0  0  0  0  0  0  0  0  0  0  0
    5.3740  -18.0830    1.5040 H   0  0  0  0  0  0  0  0  0  0  0  0
    2.5100  -14.7200   -1.9540 H   0  0  0  0  0  0  0  0  0  0  0  0
    3.0050  -16.4220   -1.8640 H   0  0  0  0  0  0  0  0  0  0  0  0
    1.9990   -9.3060    0.4310 O   0  0  0  0  0  0  0  0  0  0  0  0
    1.3270   -9.9020    0.0440 H   0  0  0  0  0  0  0  0  0  0  0  0
    3.5180   -8.6410    3.7500 C   0  0  0  0  0  2  0  0  0  0  0  0
    2.2100   -8.4070    4.2500 O   0  0  0  0  0  0  0  0  0  0  0  0
    2.0380   -7.4750    5.5590 P   0  0  2  0  0  0  0  0  0  0  0  0
    1.7230   -6.0490    5.2320 O   0  0  0  0  0  0  0  0  0  0  0  0
    3.4700   -7.6570    6.2810 O   0  0  0  0  0  0  0  0  0  0  0  0
    3.5560   -7.4840    7.6800 C   0  0  0  0  0  1  0  0  0  0  0  0
    1.0390   -8.3110    6.4820 O   0  0  0  0  0  0  0  0  0  0  0  0
   -0.5580   -7.7900    6.8940 P   0  0  2  0  0  0  0  0  0  0  0  0
    0.0110   -6.9530    8.0420 O   0  0  0  0  0  0  0  0  0  0  0  0
   -0.9410   -9.3080    7.3970 O   0  0  0  0  0  0  0  0  0  0  0  0
   -0.6110  -10.4190    6.5740 C   0  0  0  0  0  1  0  0  0  0  0  0
   -2.1560   -7.2680    7.3060 O   0  0  0  0  0  0  0  0  0  0  0  0
   -3.1840   -7.3170    6.0790 P   0  0  0  0  0  0  0  0  0  0  0  0
   -4.0320   -6.1000    5.8850 O   0  0  0  0  0  0  0  0  0  0  0  0
   -2.7550   -8.6750    3.9380 C   0  0  0  0  0  1  0  0  0  0  0  0
   -2.2410   -7.7050    4.8320 O   0  0  0  0  0  0  0  0  0  0  0  0
   -4.0040   -8.6810    6.3230 O   0  0  0  0  0  0  0  0  0  0  0  0
   -4.4000   -8.9530    7.6540 C   0  0  0  0  0  1  0  0  0  0  0  0
  1 25  1  1  0  0  0
  2  1  1  0  0  0  0
  3  4  1  0  0  0  0
  3  8  1  1  0  0  0
  3  2  1  0  0  0  0
  4  5  1  1  0  0  0
  6  4  1  0  0  0  0
  7 23  1  6  0  0  0
  7  4  1  0  0  0  0
  7  1  1  0  0  0  0
  8  9  1  0  0  0  0
  9 10  2  0  0  0  0
 11 10  1  0  0  0  0
 12 13  1  1  0  0  0
 12 11  1  0  0  0  0
 13 19  1  0  0  0  0
 14 12  1  0  0  0  0
 15 17  1  0  0  0  0
 15 14  2  0  0  0  0
 16 15  1  0  0  0  0
 17 18  1  0  0  0  0
 18 11  2  0  0  0  0
 18  8  1  0  0  0  0
 20 13  1  0  0  0  0
 21 16  1  0  0  0  0
 22 16  1  0  0  0  0
 24 23  1  0  0  0  0
 25 26  1  0  0  0  0
 26 27  1  0  0  0  0
 27 28  2  6  0  0  0
 27 29  1  0  0  0  0
 27 31  1  0  0  0  0
 29 30  1  0  0  0  0
 31 32  1  0  0  0  0
 32 36  1  0  0  0  0
 32 34  1  0  0  0  0
 32 33  2  1  0  0  0
 35 34  1  0  0  0  0
 37 41  1  0  0  0  0
 37 36  1  0  0  0  0
 38 37  2  0  0  0  0
 39 40  1  0  0  0  0
 40 37  1  0  0  0  0
 41 42  1  0  0  0  0
M  END
>  <minimizedAffinity>
-6.15100098

$$$$
