
 OpenBabel09122222393D

 32 34  0  0  0  0  0  0  0  0999 V2000
    8.6900   -3.5210    1.1700 C   0  0  0  0  0  0  0  0  0  0  0  0
    9.6970   -2.6330    1.2730 C   0  0  0  0  0  0  0  0  0  0  0  0
    9.9640   -1.9000    2.4130 N   0  0  0  0  0  0  0  0  0  0  0  0
    9.2330   -2.1310    3.4490 C   0  0  0  0  0  0  0  0  0  0  0  0
    8.2120   -3.0220    3.4760 N   0  0  0  0  0  0  0  0  0  0  0  0
    7.8560   -3.7400    2.3700 C   0  0  0  0  0  0  0  0  0  0  0  0
    6.9250   -4.5370    2.3920 O   0  0  0  0  0  0  0  0  0  0  0  0
    7.6630   -3.1600    4.3110 H   0  0  0  0  0  0  0  0  0  0  0  0
   10.6760   -2.4680    0.1730 C   0  0  0  0  0  0  0  0  0  0  0  0
   11.7740   -3.3240    0.0250 C   0  0  0  0  0  3  0  0  0  0  0  0
   12.6920   -3.1240   -1.0080 C   0  0  0  0  0  3  0  0  0  0  0  0
   12.5180   -2.0700   -1.9060 C   0  0  0  0  0  3  0  0  0  0  0  0
   11.4170   -1.2110   -1.7890 C   0  0  0  0  0  0  0  0  0  0  0  0
   10.5020   -1.4200   -0.7440 C   0  0  0  0  0  3  0  0  0  0  0  0
   11.2430   -0.0530   -2.7410 C   0  0  0  0  0  0  0  0  0  0  0  0
   10.3750    0.8810   -2.2640 F   0  0  0  0  0  0  0  0  0  0  0  0
   12.4070    0.6100   -2.9900 F   0  0  0  0  0  0  0  0  0  0  0  0
   10.7590   -0.4250   -3.9590 F   0  0  0  0  0  0  0  0  0  0  0  0
    8.2350   -5.1190   -1.0600 N   0  0  0  0  0  1  0  0  0  0  0  0
    8.4420   -4.3940   -0.0490 C   0  0  0  0  0  2  0  0  0  0  0  0
    9.5580   -1.3110    4.9400 S   0  0  0  0  0  0  0  0  0  0  0  0
    8.9810   -2.4780    6.2130 C   0  0  0  0  0  2  0  0  0  0  0  0
    7.6060   -2.1790    6.8070 C   0  0  0  0  0  2  0  0  0  0  0  0
    6.7860   -3.4390    6.9000 C   0  0  0  0  0  0  0  0  0  0  0  0
    6.8280   -4.2050    7.8540 O   0  0  0  0  0  0  0  0  0  0  0  0
    6.0370   -3.5910    5.7370 O   0  0  0  0  0  0  0  0  0  0  0  0
    4.7110   -3.1280    5.5710 C   0  0  0  0  0  0  0  0  0  0  0  0
    4.0050   -2.3810    6.5090 C   0  0  0  0  0  3  0  0  0  0  0  0
    2.6810   -2.0210    6.2460 C   0  0  0  0  0  3  0  0  0  0  0  0
    2.0760   -2.3950    5.0460 C   0  0  0  0  0  3  0  0  0  0  0  0
    2.7950   -3.1220    4.0990 C   0  0  0  0  0  3  0  0  0  0  0  0
    4.1150   -3.4890    4.3610 C   0  0  0  0  0  3  0  0  0  0  0  0
  1  2  2  0  0  0  0
  1  6  1  0  0  0  0
  2  3  1  0  0  0  0
  3  4  2  0  0  0  0
  4  5  1  0  0  0  0
  4 21  1  0  0  0  0
  5  8  1  0  0  0  0
  6  7  2  0  0  0  0
  6  5  1  0  0  0  0
  9  2  1  0  0  0  0
 10  9  1  0  0  0  0
 11 10  2  0  0  0  0
 12 13  2  0  0  0  0
 12 11  1  0  0  0  0
 13 14  1  0  0  0  0
 14  9  2  0  0  0  0
 15 16  1  0  0  0  0
 15 13  1  0  0  0  0
 17 15  1  0  0  0  0
 18 15  1  0  0  0  0
 19 20  1  0  0  0  0
 20  1  1  0  0  0  0
 21 22  1  0  0  0  0
 22 23  1  0  0  0  0
 23 24  1  0  0  0  0
 24 25  2  0  0  0  0
 26 24  1  0  0  0  0
 27 26  1  0  0  0  0
 27 28  1  0  0  0  0
 29 28  2  0  0  0  0
 30 29  1  0  0  0  0
 31 32  1  0  0  0  0
 31 30  2  0  0  0  0
 32 27  2  0  0  0  0
M  END
>  <minimizedAffinity>
-8.32309723

$$$$
