
 OpenBabel09122222393D

 32 34  0  0  0  0  0  0  0  0999 V2000
    9.2710   -1.9300    2.5770 C   0  0  0  0  0  0  0  0  0  0  0  0
    9.4110   -1.8890    1.2380 C   0  0  0  0  0  0  0  0  0  0  0  0
    9.0660   -2.9290    0.3960 N   0  0  0  0  0  0  0  0  0  0  0  0
    8.5310   -3.9710    0.9320 C   0  0  0  0  0  0  0  0  0  0  0  0
    8.3110   -4.1150    2.2610 N   0  0  0  0  0  0  0  0  0  0  0  0
    8.6770   -3.1520    3.1590 C   0  0  0  0  0  0  0  0  0  0  0  0
    8.4890   -3.2880    4.3620 O   0  0  0  0  0  0  0  0  0  0  0  0
    7.8960   -4.9560    2.6330 H   0  0  0  0  0  0  0  0  0  0  0  0
    9.8480   -0.6460    0.5610 C   0  0  0  0  0  0  0  0  0  0  0  0
    9.5750    0.6210    1.0890 C   0  0  0  0  0  3  0  0  0  0  0  0
    9.9790    1.7720    0.4110 C   0  0  0  0  0  3  0  0  0  0  0  0
   10.6660    1.6680   -0.7990 C   0  0  0  0  0  3  0  0  0  0  0  0
   10.9680    0.4100   -1.3390 C   0  0  0  0  0  0  0  0  0  0  0  0
   10.5530   -0.7410   -0.6490 C   0  0  0  0  0  3  0  0  0  0  0  0
   11.6850    0.2960   -2.6620 C   0  0  0  0  0  0  0  0  0  0  0  0
   10.8980   -0.2510   -3.6290 F   0  0  0  0  0  0  0  0  0  0  0  0
   12.0970    1.5000   -3.1490 F   0  0  0  0  0  0  0  0  0  0  0  0
   12.8010   -0.4830   -2.6040 F   0  0  0  0  0  0  0  0  0  0  0  0
    9.8080    0.2080    4.2730 N   0  0  0  0  0  1  0  0  0  0  0  0
    9.5650   -0.7610    3.5040 C   0  0  0  0  0  2  0  0  0  0  0  0
    7.9980   -5.2820   -0.0670 S   0  0  0  0  0  0  0  0  0  0  0  0
    7.1130   -6.3770    1.0880 C   0  0  0  0  0  2  0  0  0  0  0  0
    5.6190   -6.1010    1.2450 C   0  0  0  0  0  2  0  0  0  0  0  0
    5.2850   -5.8040    2.6830 C   0  0  0  0  0  0  0  0  0  0  0  0
    5.1140   -6.6700    3.5310 O   0  0  0  0  0  0  0  0  0  0  0  0
    5.1670   -4.4280    2.8560 O   0  0  0  0  0  0  0  0  0  0  0  0
    4.4990   -3.8110    3.9390 C   0  0  0  0  0  0  0  0  0  0  0  0
    3.2160   -3.2770    3.8840 C   0  0  0  0  0  3  0  0  0  0  0  0
    2.6820   -2.6530    5.0130 C   0  0  0  0  0  3  0  0  0  0  0  0
    3.4240   -2.5780    6.1920 C   0  0  0  0  0  3  0  0  0  0  0  0
    4.6990   -3.1370    6.2500 C   0  0  0  0  0  3  0  0  0  0  0  0
    5.2380   -3.7550    5.1230 C   0  0  0  0  0  3  0  0  0  0  0  0
  1  6  1  0  0  0  0
  1 20  1  0  0  0  0
  2  1  2  0  0  0  0
  3  4  2  0  0  0  0
  3  2  1  0  0  0  0
  4  5  1  0  0  0  0
  5  8  1  0  0  0  0
  5  6  1  0  0  0  0
  6  7  2  0  0  0  0
  9 10  1  0  0  0  0
  9  2  1  0  0  0  0
 11 10  2  0  0  0  0
 12 11  1  0  0  0  0
 13 12  2  0  0  0  0
 13 14  1  0  0  0  0
 14  9  2  0  0  0  0
 15 18  1  0  0  0  0
 15 13  1  0  0  0  0
 16 15  1  0  0  0  0
 17 15  1  0  0  0  0
 20 19  1  0  0  0  0
 21  4  1  0  0  0  0
 21 22  1  0  0  0  0
 22 23  1  0  0  0  0
 23 24  1  0  0  0  0
 24 26  1  0  0  0  0
 24 25  2  0  0  0  0
 26 27  1  0  0  0  0
 27 32  1  0  0  0  0
 28 27  2  0  0  0  0
 28 29  1  0  0  0  0
 29 30  2  0  0  0  0
 30 31  1  0  0  0  0
 32 31  2  0  0  0  0
M  END
>  <minimizedAffinity>
-7.42858839

$$$$
