
 OpenBabel09122222393D

 32 34  0  0  0  0  0  0  0  0999 V2000
    4.0670   -3.0920    5.8000 C   0  0  0  0  0  0  0  0  0  0  0  0
    5.1770   -3.8480    5.7040 C   0  0  0  0  0  0  0  0  0  0  0  0
    5.3110   -4.9130    4.8340 N   0  0  0  0  0  0  0  0  0  0  0  0
    4.3280   -5.1510    4.0350 C   0  0  0  0  0  0  0  0  0  0  0  0
    3.1740   -4.4410    4.0170 N   0  0  0  0  0  0  0  0  0  0  0  0
    2.9500   -3.4110    4.8850 C   0  0  0  0  0  0  0  0  0  0  0  0
    1.9010   -2.7770    4.8770 O   0  0  0  0  0  0  0  0  0  0  0  0
    2.4300   -4.6730    3.3770 H   0  0  0  0  0  0  0  0  0  0  0  0
    6.3970   -3.5000    6.4680 C   0  0  0  0  0  0  0  0  0  0  0  0
    6.4960   -3.7210    7.8460 C   0  0  0  0  0  3  0  0  0  0  0  0
    7.6520   -3.3560    8.5400 C   0  0  0  0  0  3  0  0  0  0  0  0
    8.7220   -2.7720    7.8610 C   0  0  0  0  0  3  0  0  0  0  0  0
    8.6540   -2.5580    6.4780 C   0  0  0  0  0  0  0  0  0  0  0  0
    7.4850   -2.9250    5.7920 C   0  0  0  0  0  3  0  0  0  0  0  0
    9.7990   -1.9000    5.7470 C   0  0  0  0  0  0  0  0  0  0  0  0
    9.3960   -0.8160    5.0280 F   0  0  0  0  0  0  0  0  0  0  0  0
   10.7770   -1.4520    6.5830 F   0  0  0  0  0  0  0  0  0  0  0  0
   10.4180   -2.7280    4.8600 F   0  0  0  0  0  0  0  0  0  0  0  0
    3.8360   -0.8490    7.4280 N   0  0  0  0  0  1  0  0  0  0  0  0
    3.9410   -1.8660    6.6900 C   0  0  0  0  0  2  0  0  0  0  0  0
    4.4530   -6.4180    2.8610 S   0  0  0  0  0  0  0  0  0  0  0  0
    5.3800   -5.6540    1.4930 C   0  0  0  0  0  2  0  0  0  0  0  0
    6.7070   -6.3240    1.1400 C   0  0  0  0  0  2  0  0  0  0  0  0
    7.3220   -5.6720   -0.0710 C   0  0  0  0  0  0  0  0  0  0  0  0
    6.7560   -5.5820   -1.1520 O   0  0  0  0  0  0  0  0  0  0  0  0
    8.6120   -5.2500    0.2370 O   0  0  0  0  0  0  0  0  0  0  0  0
    8.9560   -3.9270    0.6020 C   0  0  0  0  0  0  0  0  0  0  0  0
    8.5300   -3.2840    1.7610 C   0  0  0  0  0  3  0  0  0  0  0  0
    8.9030   -1.9580    1.9860 C   0  0  0  0  0  3  0  0  0  0  0  0
    9.7080   -1.2870    1.0660 C   0  0  0  0  0  3  0  0  0  0  0  0
   10.1530   -1.9430   -0.0800 C   0  0  0  0  0  3  0  0  0  0  0  0
    9.7770   -3.2660   -0.3130 C   0  0  0  0  0  3  0  0  0  0  0  0
  1 20  1  0  0  0  0
  2  1  2  0  0  0  0
  2  9  1  0  0  0  0
  3  2  1  0  0  0  0
  4  3  2  0  0  0  0
  5  4  1  0  0  0  0
  5  6  1  0  0  0  0
  6  1  1  0  0  0  0
  7  6  2  0  0  0  0
  8  5  1  0  0  0  0
  9 10  1  0  0  0  0
 10 11  2  0  0  0  0
 12 11  1  0  0  0  0
 13 12  2  0  0  0  0
 14  9  2  0  0  0  0
 14 13  1  0  0  0  0
 15 13  1  0  0  0  0
 15 17  1  0  0  0  0
 16 15  1  0  0  0  0
 18 15  1  0  0  0  0
 20 19  1  0  0  0  0
 21  4  1  0  0  0  0
 22 21  1  0  0  0  0
 23 22  1  0  0  0  0
 24 26  1  0  0  0  0
 24 23  1  0  0  0  0
 25 24  2  0  0  0  0
 26 27  1  0  0  0  0
 27 28  1  0  0  0  0
 28 29  2  0  0  0  0
 30 29  1  0  0  0  0
 31 30  2  0  0  0  0
 32 31  1  0  0  0  0
 32 27  2  0  0  0  0
M  END
>  <minimizedAffinity>
-7.43406343

$$$$
