
 OpenBabel09122222393D

 32 34  0  0  0  0  0  0  0  0999 V2000
    6.9720   -5.2990    0.6440 C   0  0  0  0  0  0  0  0  0  0  0  0
    6.8790   -4.8640    1.9150 C   0  0  0  0  0  0  0  0  0  0  0  0
    7.8090   -4.0370    2.5150 N   0  0  0  0  0  0  0  0  0  0  0  0
    8.7870   -3.6210    1.7880 C   0  0  0  0  0  0  0  0  0  0  0  0
    8.9690   -3.9630    0.4900 N   0  0  0  0  0  0  0  0  0  0  0  0
    8.1220   -4.8210   -0.1530 C   0  0  0  0  0  0  0  0  0  0  0  0
    8.2940   -5.1400   -1.3230 O   0  0  0  0  0  0  0  0  0  0  0  0
    9.7580   -3.6170   -0.0350 H   0  0  0  0  0  0  0  0  0  0  0  0
    5.6810   -5.1650    2.7320 C   0  0  0  0  0  0  0  0  0  0  0  0
    5.2250   -6.4750    2.9240 C   0  0  0  0  0  3  0  0  0  0  0  0
    4.0760   -6.7200    3.6780 C   0  0  0  0  0  3  0  0  0  0  0  0
    3.3750   -5.6590    4.2520 C   0  0  0  0  0  3  0  0  0  0  0  0
    3.8220   -4.3410    4.0900 C   0  0  0  0  0  0  0  0  0  0  0  0
    4.9760   -4.1060    3.3250 C   0  0  0  0  0  3  0  0  0  0  0  0
    3.0480   -3.1900    4.6850 C   0  0  0  0  0  0  0  0  0  0  0  0
    2.1850   -2.6320    3.7910 F   0  0  0  0  0  0  0  0  0  0  0  0
    2.2910   -3.5560    5.7570 F   0  0  0  0  0  0  0  0  0  0  0  0
    3.8440   -2.1740    5.1210 F   0  0  0  0  0  0  0  0  0  0  0  0
    5.0330   -6.8320   -0.6310 N   0  0  0  0  0  1  0  0  0  0  0  0
    5.9120   -6.1370   -0.0530 C   0  0  0  0  0  2  0  0  0  0  0  0
    9.9480   -2.5160    2.4460 S   0  0  0  0  0  0  0  0  0  0  0  0
    9.1850   -1.9580    4.0020 C   0  0  0  0  0  2  0  0  0  0  0  0
    9.8990   -2.3930    5.2800 C   0  0  0  0  0  2  0  0  0  0  0  0
    9.2350   -1.7880    6.4890 C   0  0  0  0  0  0  0  0  0  0  0  0
    9.8010   -1.6230    7.5610 O   0  0  0  0  0  0  0  0  0  0  0  0
    7.9050   -1.5040    6.1910 O   0  0  0  0  0  0  0  0  0  0  0  0
    6.7950   -2.0890    6.8440 C   0  0  0  0  0  0  0  0  0  0  0  0
    5.9030   -1.4080    7.6660 C   0  0  0  0  0  3  0  0  0  0  0  0
    4.8700   -2.1100    8.2900 C   0  0  0  0  0  3  0  0  0  0  0  0
    4.7240   -3.4810    8.0800 C   0  0  0  0  0  3  0  0  0  0  0  0
    5.6050   -4.1550    7.2350 C   0  0  0  0  0  3  0  0  0  0  0  0
    6.6420   -3.4590    6.6150 C   0  0  0  0  0  3  0  0  0  0  0  0
  1  2  2  0  0  0  0
  2  3  1  0  0  0  0
  2  9  1  0  0  0  0
  4 21  1  0  0  0  0
  4  3  2  0  0  0  0
  5  4  1  0  0  0  0
  6  5  1  0  0  0  0
  6  1  1  0  0  0  0
  7  6  2  0  0  0  0
  8  5  1  0  0  0  0
  9 10  2  0  0  0  0
  9 14  1  0  0  0  0
 10 11  1  0  0  0  0
 11 12  2  0  0  0  0
 13 12  1  0  0  0  0
 13 15  1  0  0  0  0
 14 13  2  0  0  0  0
 15 18  1  0  0  0  0
 15 17  1  0  0  0  0
 16 15  1  0  0  0  0
 19 20  1  0  0  0  0
 20  1  1  0  0  0  0
 21 22  1  0  0  0  0
 22 23  1  0  0  0  0
 23 24  1  0  0  0  0
 24 25  2  0  0  0  0
 26 24  1  0  0  0  0
 26 27  1  0  0  0  0
 27 28  1  0  0  0  0
 28 29  2  0  0  0  0
 30 29  1  0  0  0  0
 31 30  2  0  0  0  0
 32 27  2  0  0  0  0
 32 31  1  0  0  0  0
M  END
>  <minimizedAffinity>
-7.37656736

$$$$
