
 OpenBabel09122222393D

 32 34  0  0  0  0  0  0  0  0999 V2000
    7.0920   -5.2060    0.7170 C   0  0  0  0  0  0  0  0  0  0  0  0
    6.9470   -4.8700    2.0130 C   0  0  0  0  0  0  0  0  0  0  0  0
    7.8670   -4.1250    2.7230 N   0  0  0  0  0  0  0  0  0  0  0  0
    8.8940   -3.6850    2.0810 C   0  0  0  0  0  0  0  0  0  0  0  0
    9.1330   -3.9300    0.7700 N   0  0  0  0  0  0  0  0  0  0  0  0
    8.2960   -4.7050    0.0190 C   0  0  0  0  0  0  0  0  0  0  0  0
    8.5190   -4.9370   -1.1630 O   0  0  0  0  0  0  0  0  0  0  0  0
    9.9580   -3.5700    0.3140 H   0  0  0  0  0  0  0  0  0  0  0  0
    5.6990   -5.1950    2.7420 C   0  0  0  0  0  0  0  0  0  0  0  0
    5.1950   -6.4990    2.8050 C   0  0  0  0  0  3  0  0  0  0  0  0
    4.0020   -6.7650    3.4790 C   0  0  0  0  0  3  0  0  0  0  0  0
    3.3030   -5.7300    4.1010 C   0  0  0  0  0  3  0  0  0  0  0  0
    3.7970   -4.4190    4.0690 C   0  0  0  0  0  0  0  0  0  0  0  0
    4.9960   -4.1630    3.3840 C   0  0  0  0  0  3  0  0  0  0  0  0
    3.0280   -3.2930    4.7170 C   0  0  0  0  0  0  0  0  0  0  0  0
    3.8490   -2.3330    5.2240 F   0  0  0  0  0  0  0  0  0  0  0  0
    2.1920   -2.6540    3.8520 F   0  0  0  0  0  0  0  0  0  0  0  0
    2.2470   -3.7030    5.7550 F   0  0  0  0  0  0  0  0  0  0  0  0
    5.1790   -6.5680   -0.7720 N   0  0  0  0  0  1  0  0  0  0  0  0
    6.0460   -5.9500   -0.0970 C   0  0  0  0  0  2  0  0  0  0  0  0
   10.0510   -2.6750    2.8830 S   0  0  0  0  0  0  0  0  0  0  0  0
    9.2290   -1.0530    2.9660 C   0  0  0  0  0  2  0  0  0  0  0  0
    8.5530   -0.5890    1.6780 C   0  0  0  0  0  2  0  0  0  0  0  0
    9.5830   -0.1660    0.6640 C   0  0  0  0  0  0  0  0  0  0  0  0
   10.0930    0.9460    0.6400 O   0  0  0  0  0  0  0  0  0  0  0  0
    9.8060   -1.2100   -0.2300 O   0  0  0  0  0  0  0  0  0  0  0  0
   10.8910   -1.2700   -1.1350 C   0  0  0  0  0  0  0  0  0  0  0  0
   11.3170   -0.2180   -1.9400 C   0  0  0  0  0  3  0  0  0  0  0  0
   12.3760   -0.4170   -2.8280 C   0  0  0  0  0  3  0  0  0  0  0  0
   13.0120   -1.6560   -2.8980 C   0  0  0  0  0  3  0  0  0  0  0  0
   12.5990   -2.7000   -2.0710 C   0  0  0  0  0  3  0  0  0  0  0  0
   11.5370   -2.5070   -1.1880 C   0  0  0  0  0  3  0  0  0  0  0  0
  1  2  2  0  0  0  0
  2  3  1  0  0  0  0
  2  9  1  0  0  0  0
  4  3  2  0  0  0  0
  4 21  1  0  0  0  0
  5  4  1  0  0  0  0
  6  1  1  0  0  0  0
  6  5  1  0  0  0  0
  7  6  2  0  0  0  0
  8  5  1  0  0  0  0
  9 10  2  0  0  0  0
  9 14  1  0  0  0  0
 10 11  1  0  0  0  0
 11 12  2  0  0  0  0
 13 12  1  0  0  0  0
 13 15  1  0  0  0  0
 14 13  2  0  0  0  0
 15 16  1  0  0  0  0
 15 18  1  0  0  0  0
 17 15  1  0  0  0  0
 19 20  1  0  0  0  0
 20  1  1  0  0  0  0
 21 22  1  0  0  0  0
 23 22  1  0  0  0  0
 24 23  1  0  0  0  0
 25 24  2  0  0  0  0
 26 24  1  0  0  0  0
 27 26  1  0  0  0  0
 28 27  2  0  0  0  0
 29 28  1  0  0  0  0
 30 29  2  0  0  0  0
 30 31  1  0  0  0  0
 31 32  2  0  0  0  0
 32 27  1  0  0  0  0
M  END
>  <minimizedAffinity>
-7.59132147

$$$$
