
 OpenBabel09122222393D

 32 34  0  0  0  0  0  0  0  0999 V2000
   11.0450    0.9580   -1.1630 C   0  0  0  0  0  0  0  0  0  0  0  0
   10.6280    1.5860   -0.0470 C   0  0  0  0  0  0  0  0  0  0  0  0
    9.8840    0.9790    0.9460 N   0  0  0  0  0  0  0  0  0  0  0  0
    9.6280   -0.2760    0.8090 C   0  0  0  0  0  0  0  0  0  0  0  0
   10.0200   -1.0210   -0.2520 N   0  0  0  0  0  0  0  0  0  0  0  0
   10.7110   -0.4760   -1.2970 C   0  0  0  0  0  0  0  0  0  0  0  0
   11.0550   -1.1470   -2.2630 O   0  0  0  0  0  0  0  0  0  0  0  0
    9.7870   -2.0000   -0.3170 H   0  0  0  0  0  0  0  0  0  0  0  0
   11.0530    2.9760    0.2420 C   0  0  0  0  0  0  0  0  0  0  0  0
   12.2760    3.2630    0.8580 C   0  0  0  0  0  3  0  0  0  0  0  0
   12.6330    4.5830    1.1410 C   0  0  0  0  0  3  0  0  0  0  0  0
   11.7740    5.6290    0.8040 C   0  0  0  0  0  3  0  0  0  0  0  0
   10.5510    5.3680    0.1700 C   0  0  0  0  0  0  0  0  0  0  0  0
   10.2010    4.0360   -0.1050 C   0  0  0  0  0  3  0  0  0  0  0  0
    9.6070    6.4960   -0.1680 C   0  0  0  0  0  0  0  0  0  0  0  0
   10.1800    7.4200   -0.9870 F   0  0  0  0  0  0  0  0  0  0  0  0
    8.4810    6.0730   -0.8080 F   0  0  0  0  0  0  0  0  0  0  0  0
    9.1760    7.1830    0.9270 F   0  0  0  0  0  0  0  0  0  0  0  0
   12.6760    2.1170   -3.0940 N   0  0  0  0  0  1  0  0  0  0  0  0
   11.9370    1.5910   -2.2180 C   0  0  0  0  0  2  0  0  0  0  0  0
    8.7700   -1.1260    2.0510 S   0  0  0  0  0  0  0  0  0  0  0  0
    9.3470   -2.8450    1.8800 C   0  0  0  0  0  2  0  0  0  0  0  0
    8.3270   -3.8290    1.3100 C   0  0  0  0  0  2  0  0  0  0  0  0
    8.8670   -4.4870    0.0670 C   0  0  0  0  0  0  0  0  0  0  0  0
    9.6380   -3.9390   -0.7090 O   0  0  0  0  0  0  0  0  0  0  0  0
    8.3170   -5.7600   -0.0580 O   0  0  0  0  0  0  0  0  0  0  0  0
    6.9710   -6.0830    0.2320 C   0  0  0  0  0  0  0  0  0  0  0  0
    5.9150   -5.9760   -0.6670 C   0  0  0  0  0  3  0  0  0  0  0  0
    4.6200   -6.2840   -0.2450 C   0  0  0  0  0  3  0  0  0  0  0  0
    4.3890   -6.7110    1.0620 C   0  0  0  0  0  3  0  0  0  0  0  0
    5.4540   -6.8420    1.9520 C   0  0  0  0  0  3  0  0  0  0  0  0
    6.7480   -6.5280    1.5370 C   0  0  0  0  0  3  0  0  0  0  0  0
  1  2  2  0  0  0  0
  2  9  1  0  0  0  0
  2  3  1  0  0  0  0
  4  3  2  0  0  0  0
  4 21  1  0  0  0  0
  5  4  1  0  0  0  0
  6  1  1  0  0  0  0
  6  5  1  0  0  0  0
  7  6  2  0  0  0  0
  8  5  1  0  0  0  0
  9 10  1  0  0  0  0
 10 11  2  0  0  0  0
 12 11  1  0  0  0  0
 13 12  2  0  0  0  0
 14 13  1  0  0  0  0
 14  9  2  0  0  0  0
 15 13  1  0  0  0  0
 15 18  1  0  0  0  0
 16 15  1  0  0  0  0
 17 15  1  0  0  0  0
 19 20  1  0  0  0  0
 20  1  1  0  0  0  0
 22 21  1  0  0  0  0
 23 22  1  0  0  0  0
 24 23  1  0  0  0  0
 25 24  2  0  0  0  0
 26 24  1  0  0  0  0
 26 27  1  0  0  0  0
 27 32  1  0  0  0  0
 28 29  1  0  0  0  0
 28 27  2  0  0  0  0
 29 30  2  0  0  0  0
 30 31  1  0  0  0  0
 32 31  2  0  0  0  0
M  END
>  <minimizedAffinity>
-7.26155281

$$$$
