
 OpenBabel09122219593D

 32 34  0  0  0  0  0  0  0  0999 V2000
    8.6900   -3.5210    1.1700 C   0  0  0  0  0  0  0  0  0  0  0  0
    9.6970   -2.6330    1.2730 C   0  0  0  0  0  0  0  0  0  0  0  0
    9.9640   -1.9000    2.4130 N   0  0  0  0  0  0  0  0  0  0  0  0
    9.2330   -2.1310    3.4490 C   0  0  0  0  0  0  0  0  0  0  0  0
    8.2120   -3.0220    3.4760 N   0  0  0  0  0  0  0  0  0  0  0  0
    7.8560   -3.7400    2.3700 C   0  0  0  0  0  0  0  0  0  0  0  0
    6.9250   -4.5370    2.3920 O   0  0  0  0  0  0  0  0  0  0  0  0
    7.6630   -3.1600    4.3110 H   0  0  0  0  0  0  0  0  0  0  0  0
   10.6760   -2.4680    0.1730 C   0  0  0  0  0  0  0  0  0  0  0  0
   11.7740   -3.3240    0.0250 C   0  0  0  0  0  3  0  0  0  0  0  0
   12.6920   -3.1240   -1.0080 C   0  0  0  0  0  3  0  0  0  0  0  0
   12.5180   -2.0700   -1.9060 C   0  0  0  0  0  3  0  0  0  0  0  0
   11.4170   -1.2110   -1.7890 C   0  0  0  0  0  0  0  0  0  0  0  0
   10.5020   -1.4200   -0.7440 C   0  0  0  0  0  3  0  0  0  0  0  0
   11.2430   -0.0530   -2.7410 C   0  0  0  0  0  0  0  0  0  0  0  0
   10.3750    0.8810   -2.2640 F   0  0  0  0  0  0  0  0  0  0  0  0
   12.4070    0.6100   -2.9900 F   0  0  0  0  0  0  0  0  0  0  0  0
   10.7590   -0.4250   -3.9590 F   0  0  0  0  0  0  0  0  0  0  0  0
    8.2350   -5.1190   -1.0600 N   0  0  0  0  0  1  0  0  0  0  0  0
    8.4420   -4.3940   -0.0490 C   0  0  0  0  0  2  0  0  0  0  0  0
    9.5580   -1.3110    4.9400 S   0  0  0  0  0  0  0  0  0  0  0  0
    8.9810   -2.4780    6.2130 C   0  0  0  0  0  2  0  0  0  0  0  0
    7.6060   -2.1790    6.8070 C   0  0  0  0  0  2  0  0  0  0  0  0
    6.7860   -3.4390    6.9000 C   0  0  0  0  0  0  0  0  0  0  0  0
    6.8280   -4.2050    7.8540 O   0  0  0  0  0  0  0  0  0  0  0  0
    6.0370   -3.5910    5.7370 O   0  0  0  0  0  0  0  0  0  0  0  0
    4.7110   -3.1280    5.5710 C   0  0  0  0  0  0  0  0  0  0  0  0
    4.0050   -2.3810    6.5090 C   0  0  0  0  0  3  0  0  0  0  0  0
    2.6810   -2.0210    6.2460 C   0  0  0  0  0  3  0  0  0  0  0  0
    2.0760   -2.3950    5.0460 C   0  0  0  0  0  3  0  0  0  0  0  0
    2.7950   -3.1220    4.0990 C   0  0  0  0  0  3  0  0  0  0  0  0
    4.1150   -3.4890    4.3610 C   0  0  0  0  0  3  0  0  0  0  0  0
  1  2  2  0  0  0  0
  1  6  1  0  0  0  0
  2  3  1  0  0  0  0
  3  4  2  0  0  0  0
  4  5  1  0  0  0  0
  4 21  1  0  0  0  0
  5  8  1  0  0  0  0
  6  7  2  0  0  0  0
  6  5  1  0  0  0  0
  9  2  1  0  0  0  0
 10  9  1  0  0  0  0
 11 10  2  0  0  0  0
 12 13  2  0  0  0  0
 12 11  1  0  0  0  0
 13 14  1  0  0  0  0
 14  9  2  0  0  0  0
 15 16  1  0  0  0  0
 15 13  1  0  0  0  0
 17 15  1  0  0  0  0
 18 15  1  0  0  0  0
 19 20  1  0  0  0  0
 20  1  1  0  0  0  0
 21 22  1  0  0  0  0
 22 23  1  0  0  0  0
 23 24  1  0  0  0  0
 24 25  2  0  0  0  0
 26 24  1  0  0  0  0
 27 26  1  0  0  0  0
 27 28  1  0  0  0  0
 29 28  2  0  0  0  0
 30 29  1  0  0  0  0
 31 32  1  0  0  0  0
 31 30  2  0  0  0  0
 32 27  2  0  0  0  0
M  END
>  <minimizedAffinity>
-8.32309723

$$$$

 OpenBabel09122219593D

 32 34  0  0  0  0  0  0  0  0999 V2000
    8.9120   -3.7170    1.0230 C   0  0  0  0  0  0  0  0  0  0  0  0
    9.9840   -2.9140    1.1720 C   0  0  0  0  0  0  0  0  0  0  0  0
   10.3690   -2.3600    2.3780 N   0  0  0  0  0  0  0  0  0  0  0  0
    9.6860   -2.6830    3.4220 C   0  0  0  0  0  0  0  0  0  0  0  0
    8.6090   -3.5040    3.4020 N   0  0  0  0  0  0  0  0  0  0  0  0
    8.1370   -4.0440    2.2390 C   0  0  0  0  0  0  0  0  0  0  0  0
    7.1560   -4.7770    2.2200 O   0  0  0  0  0  0  0  0  0  0  0  0
    8.1020   -3.7190    4.2470 H   0  0  0  0  0  0  0  0  0  0  0  0
   10.9040   -2.6640    0.0390 C   0  0  0  0  0  0  0  0  0  0  0  0
   12.0250   -3.4680   -0.1950 C   0  0  0  0  0  3  0  0  0  0  0  0
   12.8870   -3.1880   -1.2570 C   0  0  0  0  0  3  0  0  0  0  0  0
   12.6340   -2.1040   -2.0990 C   0  0  0  0  0  3  0  0  0  0  0  0
   11.5070   -1.2950   -1.8960 C   0  0  0  0  0  0  0  0  0  0  0  0
   10.6500   -1.5850   -0.8210 C   0  0  0  0  0  3  0  0  0  0  0  0
   11.2470   -0.1050   -2.7860 C   0  0  0  0  0  0  0  0  0  0  0  0
   10.7840   -0.4710   -4.0140 F   0  0  0  0  0  0  0  0  0  0  0  0
   10.3170    0.7490   -2.2750 F   0  0  0  0  0  0  0  0  0  0  0  0
   12.3580    0.6480   -3.0160 F   0  0  0  0  0  0  0  0  0  0  0  0
    8.2130   -4.9680   -1.3600 N   0  0  0  0  0  1  0  0  0  0  0  0
    8.5300   -4.4010   -0.2790 C   0  0  0  0  0  2  0  0  0  0  0  0
   10.1560   -2.0930    4.9810 S   0  0  0  0  0  0  0  0  0  0  0  0
    9.7170   -0.3270    4.9300 C   0  0  0  0  0  2  0  0  0  0  0  0
   10.7060    0.6190    5.6060 C   0  0  0  0  0  2  0  0  0  0  0  0
   10.4080    2.0480    5.2370 C   0  0  0  0  0  0  0  0  0  0  0  0
    9.4470    2.6720    5.6650 O   0  0  0  0  0  0  0  0  0  0  0  0
   11.3590    2.4980    4.3250 O   0  0  0  0  0  0  0  0  0  0  0  0
   11.1370    2.6240    2.9340 C   0  0  0  0  0  0  0  0  0  0  0  0
   10.0290    2.1260    2.2550 C   0  0  0  0  0  3  0  0  0  0  0  0
    9.9470    2.2780    0.8690 C   0  0  0  0  0  3  0  0  0  0  0  0
   10.9600    2.9360    0.1720 C   0  0  0  0  0  3  0  0  0  0  0  0
   12.0550    3.4560    0.8600 C   0  0  0  0  0  3  0  0  0  0  0  0
   12.1440    3.3010    2.2430 C   0  0  0  0  0  3  0  0  0  0  0  0
  1  2  2  0  0  0  0
  1  6  1  0  0  0  0
  2  3  1  0  0  0  0
  3  4  2  0  0  0  0
  4 21  1  0  0  0  0
  5  4  1  0  0  0  0
  5  8  1  0  0  0  0
  6  5  1  0  0  0  0
  7  6  2  0  0  0  0
  9  2  1  0  0  0  0
 10  9  1  0  0  0  0
 11 10  2  0  0  0  0
 12 13  2  0  0  0  0
 12 11  1  0  0  0  0
 13 14  1  0  0  0  0
 14  9  2  0  0  0  0
 15 17  1  0  0  0  0
 15 13  1  0  0  0  0
 16 15  1  0  0  0  0
 18 15  1  0  0  0  0
 19 20  1  0  0  0  0
 20  1  1  0  0  0  0
 22 21  1  0  0  0  0
 22 23  1  0  0  0  0
 24 23  1  0  0  0  0
 24 25  2  0  0  0  0
 26 24  1  0  0  0  0
 27 26  1  0  0  0  0
 28 27  1  0  0  0  0
 29 28  2  0  0  0  0
 30 31  2  0  0  0  0
 30 29  1  0  0  0  0
 31 32  1  0  0  0  0
 32 27  2  0  0  0  0
M  END
>  <minimizedAffinity>
-7.88282156

$$$$

 OpenBabel09122219593D

 32 34  0  0  0  0  0  0  0  0999 V2000
    7.0920   -5.2060    0.7170 C   0  0  0  0  0  0  0  0  0  0  0  0
    6.9470   -4.8700    2.0130 C   0  0  0  0  0  0  0  0  0  0  0  0
    7.8670   -4.1250    2.7230 N   0  0  0  0  0  0  0  0  0  0  0  0
    8.8940   -3.6850    2.0810 C   0  0  0  0  0  0  0  0  0  0  0  0
    9.1330   -3.9300    0.7700 N   0  0  0  0  0  0  0  0  0  0  0  0
    8.2960   -4.7050    0.0190 C   0  0  0  0  0  0  0  0  0  0  0  0
    8.5190   -4.9370   -1.1630 O   0  0  0  0  0  0  0  0  0  0  0  0
    9.9580   -3.5700    0.3140 H   0  0  0  0  0  0  0  0  0  0  0  0
    5.6990   -5.1950    2.7420 C   0  0  0  0  0  0  0  0  0  0  0  0
    5.1950   -6.4990    2.8050 C   0  0  0  0  0  3  0  0  0  0  0  0
    4.0020   -6.7650    3.4790 C   0  0  0  0  0  3  0  0  0  0  0  0
    3.3030   -5.7300    4.1010 C   0  0  0  0  0  3  0  0  0  0  0  0
    3.7970   -4.4190    4.0690 C   0  0  0  0  0  0  0  0  0  0  0  0
    4.9960   -4.1630    3.3840 C   0  0  0  0  0  3  0  0  0  0  0  0
    3.0280   -3.2930    4.7170 C   0  0  0  0  0  0  0  0  0  0  0  0
    3.8490   -2.3330    5.2240 F   0  0  0  0  0  0  0  0  0  0  0  0
    2.1920   -2.6540    3.8520 F   0  0  0  0  0  0  0  0  0  0  0  0
    2.2470   -3.7030    5.7550 F   0  0  0  0  0  0  0  0  0  0  0  0
    5.1790   -6.5680   -0.7720 N   0  0  0  0  0  1  0  0  0  0  0  0
    6.0460   -5.9500   -0.0970 C   0  0  0  0  0  2  0  0  0  0  0  0
   10.0510   -2.6750    2.8830 S   0  0  0  0  0  0  0  0  0  0  0  0
    9.2290   -1.0530    2.9660 C   0  0  0  0  0  2  0  0  0  0  0  0
    8.5530   -0.5890    1.6780 C   0  0  0  0  0  2  0  0  0  0  0  0
    9.5830   -0.1660    0.6640 C   0  0  0  0  0  0  0  0  0  0  0  0
   10.0930    0.9460    0.6400 O   0  0  0  0  0  0  0  0  0  0  0  0
    9.8060   -1.2100   -0.2300 O   0  0  0  0  0  0  0  0  0  0  0  0
   10.8910   -1.2700   -1.1350 C   0  0  0  0  0  0  0  0  0  0  0  0
   11.3170   -0.2180   -1.9400 C   0  0  0  0  0  3  0  0  0  0  0  0
   12.3760   -0.4170   -2.8280 C   0  0  0  0  0  3  0  0  0  0  0  0
   13.0120   -1.6560   -2.8980 C   0  0  0  0  0  3  0  0  0  0  0  0
   12.5990   -2.7000   -2.0710 C   0  0  0  0  0  3  0  0  0  0  0  0
   11.5370   -2.5070   -1.1880 C   0  0  0  0  0  3  0  0  0  0  0  0
  1  2  2  0  0  0  0
  2  3  1  0  0  0  0
  2  9  1  0  0  0  0
  4  3  2  0  0  0  0
  4 21  1  0  0  0  0
  5  4  1  0  0  0  0
  6  1  1  0  0  0  0
  6  5  1  0  0  0  0
  7  6  2  0  0  0  0
  8  5  1  0  0  0  0
  9 10  2  0  0  0  0
  9 14  1  0  0  0  0
 10 11  1  0  0  0  0
 11 12  2  0  0  0  0
 13 12  1  0  0  0  0
 13 15  1  0  0  0  0
 14 13  2  0  0  0  0
 15 16  1  0  0  0  0
 15 18  1  0  0  0  0
 17 15  1  0  0  0  0
 19 20  1  0  0  0  0
 20  1  1  0  0  0  0
 21 22  1  0  0  0  0
 23 22  1  0  0  0  0
 24 23  1  0  0  0  0
 25 24  2  0  0  0  0
 26 24  1  0  0  0  0
 27 26  1  0  0  0  0
 28 27  2  0  0  0  0
 29 28  1  0  0  0  0
 30 29  2  0  0  0  0
 30 31  1  0  0  0  0
 31 32  2  0  0  0  0
 32 27  1  0  0  0  0
M  END
>  <minimizedAffinity>
-7.59132147

$$$$

 OpenBabel09122219593D

 32 34  0  0  0  0  0  0  0  0999 V2000
    4.0670   -3.0920    5.8000 C   0  0  0  0  0  0  0  0  0  0  0  0
    5.1770   -3.8480    5.7040 C   0  0  0  0  0  0  0  0  0  0  0  0
    5.3110   -4.9130    4.8340 N   0  0  0  0  0  0  0  0  0  0  0  0
    4.3280   -5.1510    4.0350 C   0  0  0  0  0  0  0  0  0  0  0  0
    3.1740   -4.4410    4.0170 N   0  0  0  0  0  0  0  0  0  0  0  0
    2.9500   -3.4110    4.8850 C   0  0  0  0  0  0  0  0  0  0  0  0
    1.9010   -2.7770    4.8770 O   0  0  0  0  0  0  0  0  0  0  0  0
    2.4300   -4.6730    3.3770 H   0  0  0  0  0  0  0  0  0  0  0  0
    6.3970   -3.5000    6.4680 C   0  0  0  0  0  0  0  0  0  0  0  0
    6.4960   -3.7210    7.8460 C   0  0  0  0  0  3  0  0  0  0  0  0
    7.6520   -3.3560    8.5400 C   0  0  0  0  0  3  0  0  0  0  0  0
    8.7220   -2.7720    7.8610 C   0  0  0  0  0  3  0  0  0  0  0  0
    8.6540   -2.5580    6.4780 C   0  0  0  0  0  0  0  0  0  0  0  0
    7.4850   -2.9250    5.7920 C   0  0  0  0  0  3  0  0  0  0  0  0
    9.7990   -1.9000    5.7470 C   0  0  0  0  0  0  0  0  0  0  0  0
    9.3960   -0.8160    5.0280 F   0  0  0  0  0  0  0  0  0  0  0  0
   10.7770   -1.4520    6.5830 F   0  0  0  0  0  0  0  0  0  0  0  0
   10.4180   -2.7280    4.8600 F   0  0  0  0  0  0  0  0  0  0  0  0
    3.8360   -0.8490    7.4280 N   0  0  0  0  0  1  0  0  0  0  0  0
    3.9410   -1.8660    6.6900 C   0  0  0  0  0  2  0  0  0  0  0  0
    4.4530   -6.4180    2.8610 S   0  0  0  0  0  0  0  0  0  0  0  0
    5.3800   -5.6540    1.4930 C   0  0  0  0  0  2  0  0  0  0  0  0
    6.7070   -6.3240    1.1400 C   0  0  0  0  0  2  0  0  0  0  0  0
    7.3220   -5.6720   -0.0710 C   0  0  0  0  0  0  0  0  0  0  0  0
    6.7560   -5.5820   -1.1520 O   0  0  0  0  0  0  0  0  0  0  0  0
    8.6120   -5.2500    0.2370 O   0  0  0  0  0  0  0  0  0  0  0  0
    8.9560   -3.9270    0.6020 C   0  0  0  0  0  0  0  0  0  0  0  0
    8.5300   -3.2840    1.7610 C   0  0  0  0  0  3  0  0  0  0  0  0
    8.9030   -1.9580    1.9860 C   0  0  0  0  0  3  0  0  0  0  0  0
    9.7080   -1.2870    1.0660 C   0  0  0  0  0  3  0  0  0  0  0  0
   10.1530   -1.9430   -0.0800 C   0  0  0  0  0  3  0  0  0  0  0  0
    9.7770   -3.2660   -0.3130 C   0  0  0  0  0  3  0  0  0  0  0  0
  1 20  1  0  0  0  0
  2  1  2  0  0  0  0
  2  9  1  0  0  0  0
  3  2  1  0  0  0  0
  4  3  2  0  0  0  0
  5  4  1  0  0  0  0
  5  6  1  0  0  0  0
  6  1  1  0  0  0  0
  7  6  2  0  0  0  0
  8  5  1  0  0  0  0
  9 10  1  0  0  0  0
 10 11  2  0  0  0  0
 12 11  1  0  0  0  0
 13 12  2  0  0  0  0
 14  9  2  0  0  0  0
 14 13  1  0  0  0  0
 15 13  1  0  0  0  0
 15 17  1  0  0  0  0
 16 15  1  0  0  0  0
 18 15  1  0  0  0  0
 20 19  1  0  0  0  0
 21  4  1  0  0  0  0
 22 21  1  0  0  0  0
 23 22  1  0  0  0  0
 24 26  1  0  0  0  0
 24 23  1  0  0  0  0
 25 24  2  0  0  0  0
 26 27  1  0  0  0  0
 27 28  1  0  0  0  0
 28 29  2  0  0  0  0
 30 29  1  0  0  0  0
 31 30  2  0  0  0  0
 32 31  1  0  0  0  0
 32 27  2  0  0  0  0
M  END
>  <minimizedAffinity>
-7.43406343

$$$$

 OpenBabel09122219593D

 32 34  0  0  0  0  0  0  0  0999 V2000
    9.2710   -1.9300    2.5770 C   0  0  0  0  0  0  0  0  0  0  0  0
    9.4110   -1.8890    1.2380 C   0  0  0  0  0  0  0  0  0  0  0  0
    9.0660   -2.9290    0.3960 N   0  0  0  0  0  0  0  0  0  0  0  0
    8.5310   -3.9710    0.9320 C   0  0  0  0  0  0  0  0  0  0  0  0
    8.3110   -4.1150    2.2610 N   0  0  0  0  0  0  0  0  0  0  0  0
    8.6770   -3.1520    3.1590 C   0  0  0  0  0  0  0  0  0  0  0  0
    8.4890   -3.2880    4.3620 O   0  0  0  0  0  0  0  0  0  0  0  0
    7.8960   -4.9560    2.6330 H   0  0  0  0  0  0  0  0  0  0  0  0
    9.8480   -0.6460    0.5610 C   0  0  0  0  0  0  0  0  0  0  0  0
    9.5750    0.6210    1.0890 C   0  0  0  0  0  3  0  0  0  0  0  0
    9.9790    1.7720    0.4110 C   0  0  0  0  0  3  0  0  0  0  0  0
   10.6660    1.6680   -0.7990 C   0  0  0  0  0  3  0  0  0  0  0  0
   10.9680    0.4100   -1.3390 C   0  0  0  0  0  0  0  0  0  0  0  0
   10.5530   -0.7410   -0.6490 C   0  0  0  0  0  3  0  0  0  0  0  0
   11.6850    0.2960   -2.6620 C   0  0  0  0  0  0  0  0  0  0  0  0
   10.8980   -0.2510   -3.6290 F   0  0  0  0  0  0  0  0  0  0  0  0
   12.0970    1.5000   -3.1490 F   0  0  0  0  0  0  0  0  0  0  0  0
   12.8010   -0.4830   -2.6040 F   0  0  0  0  0  0  0  0  0  0  0  0
    9.8080    0.2080    4.2730 N   0  0  0  0  0  1  0  0  0  0  0  0
    9.5650   -0.7610    3.5040 C   0  0  0  0  0  2  0  0  0  0  0  0
    7.9980   -5.2820   -0.0670 S   0  0  0  0  0  0  0  0  0  0  0  0
    7.1130   -6.3770    1.0880 C   0  0  0  0  0  2  0  0  0  0  0  0
    5.6190   -6.1010    1.2450 C   0  0  0  0  0  2  0  0  0  0  0  0
    5.2850   -5.8040    2.6830 C   0  0  0  0  0  0  0  0  0  0  0  0
    5.1140   -6.6700    3.5310 O   0  0  0  0  0  0  0  0  0  0  0  0
    5.1670   -4.4280    2.8560 O   0  0  0  0  0  0  0  0  0  0  0  0
    4.4990   -3.8110    3.9390 C   0  0  0  0  0  0  0  0  0  0  0  0
    3.2160   -3.2770    3.8840 C   0  0  0  0  0  3  0  0  0  0  0  0
    2.6820   -2.6530    5.0130 C   0  0  0  0  0  3  0  0  0  0  0  0
    3.4240   -2.5780    6.1920 C   0  0  0  0  0  3  0  0  0  0  0  0
    4.6990   -3.1370    6.2500 C   0  0  0  0  0  3  0  0  0  0  0  0
    5.2380   -3.7550    5.1230 C   0  0  0  0  0  3  0  0  0  0  0  0
  1  6  1  0  0  0  0
  1 20  1  0  0  0  0
  2  1  2  0  0  0  0
  3  4  2  0  0  0  0
  3  2  1  0  0  0  0
  4  5  1  0  0  0  0
  5  8  1  0  0  0  0
  5  6  1  0  0  0  0
  6  7  2  0  0  0  0
  9 10  1  0  0  0  0
  9  2  1  0  0  0  0
 11 10  2  0  0  0  0
 12 11  1  0  0  0  0
 13 12  2  0  0  0  0
 13 14  1  0  0  0  0
 14  9  2  0  0  0  0
 15 18  1  0  0  0  0
 15 13  1  0  0  0  0
 16 15  1  0  0  0  0
 17 15  1  0  0  0  0
 20 19  1  0  0  0  0
 21  4  1  0  0  0  0
 21 22  1  0  0  0  0
 22 23  1  0  0  0  0
 23 24  1  0  0  0  0
 24 26  1  0  0  0  0
 24 25  2  0  0  0  0
 26 27  1  0  0  0  0
 27 32  1  0  0  0  0
 28 27  2  0  0  0  0
 28 29  1  0  0  0  0
 29 30  2  0  0  0  0
 30 31  1  0  0  0  0
 32 31  2  0  0  0  0
M  END
>  <minimizedAffinity>
-7.42858839

$$$$

 OpenBabel09122219593D

 32 34  0  0  0  0  0  0  0  0999 V2000
    6.9720   -5.2990    0.6440 C   0  0  0  0  0  0  0  0  0  0  0  0
    6.8790   -4.8640    1.9150 C   0  0  0  0  0  0  0  0  0  0  0  0
    7.8090   -4.0370    2.5150 N   0  0  0  0  0  0  0  0  0  0  0  0
    8.7870   -3.6210    1.7880 C   0  0  0  0  0  0  0  0  0  0  0  0
    8.9690   -3.9630    0.4900 N   0  0  0  0  0  0  0  0  0  0  0  0
    8.1220   -4.8210   -0.1530 C   0  0  0  0  0  0  0  0  0  0  0  0
    8.2940   -5.1400   -1.3230 O   0  0  0  0  0  0  0  0  0  0  0  0
    9.7580   -3.6170   -0.0350 H   0  0  0  0  0  0  0  0  0  0  0  0
    5.6810   -5.1650    2.7320 C   0  0  0  0  0  0  0  0  0  0  0  0
    5.2250   -6.4750    2.9240 C   0  0  0  0  0  3  0  0  0  0  0  0
    4.0760   -6.7200    3.6780 C   0  0  0  0  0  3  0  0  0  0  0  0
    3.3750   -5.6590    4.2520 C   0  0  0  0  0  3  0  0  0  0  0  0
    3.8220   -4.3410    4.0900 C   0  0  0  0  0  0  0  0  0  0  0  0
    4.9760   -4.1060    3.3250 C   0  0  0  0  0  3  0  0  0  0  0  0
    3.0480   -3.1900    4.6850 C   0  0  0  0  0  0  0  0  0  0  0  0
    2.1850   -2.6320    3.7910 F   0  0  0  0  0  0  0  0  0  0  0  0
    2.2910   -3.5560    5.7570 F   0  0  0  0  0  0  0  0  0  0  0  0
    3.8440   -2.1740    5.1210 F   0  0  0  0  0  0  0  0  0  0  0  0
    5.0330   -6.8320   -0.6310 N   0  0  0  0  0  1  0  0  0  0  0  0
    5.9120   -6.1370   -0.0530 C   0  0  0  0  0  2  0  0  0  0  0  0
    9.9480   -2.5160    2.4460 S   0  0  0  0  0  0  0  0  0  0  0  0
    9.1850   -1.9580    4.0020 C   0  0  0  0  0  2  0  0  0  0  0  0
    9.8990   -2.3930    5.2800 C   0  0  0  0  0  2  0  0  0  0  0  0
    9.2350   -1.7880    6.4890 C   0  0  0  0  0  0  0  0  0  0  0  0
    9.8010   -1.6230    7.5610 O   0  0  0  0  0  0  0  0  0  0  0  0
    7.9050   -1.5040    6.1910 O   0  0  0  0  0  0  0  0  0  0  0  0
    6.7950   -2.0890    6.8440 C   0  0  0  0  0  0  0  0  0  0  0  0
    5.9030   -1.4080    7.6660 C   0  0  0  0  0  3  0  0  0  0  0  0
    4.8700   -2.1100    8.2900 C   0  0  0  0  0  3  0  0  0  0  0  0
    4.7240   -3.4810    8.0800 C   0  0  0  0  0  3  0  0  0  0  0  0
    5.6050   -4.1550    7.2350 C   0  0  0  0  0  3  0  0  0  0  0  0
    6.6420   -3.4590    6.6150 C   0  0  0  0  0  3  0  0  0  0  0  0
  1  2  2  0  0  0  0
  2  3  1  0  0  0  0
  2  9  1  0  0  0  0
  4 21  1  0  0  0  0
  4  3  2  0  0  0  0
  5  4  1  0  0  0  0
  6  5  1  0  0  0  0
  6  1  1  0  0  0  0
  7  6  2  0  0  0  0
  8  5  1  0  0  0  0
  9 10  2  0  0  0  0
  9 14  1  0  0  0  0
 10 11  1  0  0  0  0
 11 12  2  0  0  0  0
 13 12  1  0  0  0  0
 13 15  1  0  0  0  0
 14 13  2  0  0  0  0
 15 18  1  0  0  0  0
 15 17  1  0  0  0  0
 16 15  1  0  0  0  0
 19 20  1  0  0  0  0
 20  1  1  0  0  0  0
 21 22  1  0  0  0  0
 22 23  1  0  0  0  0
 23 24  1  0  0  0  0
 24 25  2  0  0  0  0
 26 24  1  0  0  0  0
 26 27  1  0  0  0  0
 27 28  1  0  0  0  0
 28 29  2  0  0  0  0
 30 29  1  0  0  0  0
 31 30  2  0  0  0  0
 32 27  2  0  0  0  0
 32 31  1  0  0  0  0
M  END
>  <minimizedAffinity>
-7.37656736

$$$$

 OpenBabel09122219593D

 32 34  0  0  0  0  0  0  0  0999 V2000
   11.0450    0.9580   -1.1630 C   0  0  0  0  0  0  0  0  0  0  0  0
   10.6280    1.5860   -0.0470 C   0  0  0  0  0  0  0  0  0  0  0  0
    9.8840    0.9790    0.9460 N   0  0  0  0  0  0  0  0  0  0  0  0
    9.6280   -0.2760    0.8090 C   0  0  0  0  0  0  0  0  0  0  0  0
   10.0200   -1.0210   -0.2520 N   0  0  0  0  0  0  0  0  0  0  0  0
   10.7110   -0.4760   -1.2970 C   0  0  0  0  0  0  0  0  0  0  0  0
   11.0550   -1.1470   -2.2630 O   0  0  0  0  0  0  0  0  0  0  0  0
    9.7870   -2.0000   -0.3170 H   0  0  0  0  0  0  0  0  0  0  0  0
   11.0530    2.9760    0.2420 C   0  0  0  0  0  0  0  0  0  0  0  0
   12.2760    3.2630    0.8580 C   0  0  0  0  0  3  0  0  0  0  0  0
   12.6330    4.5830    1.1410 C   0  0  0  0  0  3  0  0  0  0  0  0
   11.7740    5.6290    0.8040 C   0  0  0  0  0  3  0  0  0  0  0  0
   10.5510    5.3680    0.1700 C   0  0  0  0  0  0  0  0  0  0  0  0
   10.2010    4.0360   -0.1050 C   0  0  0  0  0  3  0  0  0  0  0  0
    9.6070    6.4960   -0.1680 C   0  0  0  0  0  0  0  0  0  0  0  0
   10.1800    7.4200   -0.9870 F   0  0  0  0  0  0  0  0  0  0  0  0
    8.4810    6.0730   -0.8080 F   0  0  0  0  0  0  0  0  0  0  0  0
    9.1760    7.1830    0.9270 F   0  0  0  0  0  0  0  0  0  0  0  0
   12.6760    2.1170   -3.0940 N   0  0  0  0  0  1  0  0  0  0  0  0
   11.9370    1.5910   -2.2180 C   0  0  0  0  0  2  0  0  0  0  0  0
    8.7700   -1.1260    2.0510 S   0  0  0  0  0  0  0  0  0  0  0  0
    9.3470   -2.8450    1.8800 C   0  0  0  0  0  2  0  0  0  0  0  0
    8.3270   -3.8290    1.3100 C   0  0  0  0  0  2  0  0  0  0  0  0
    8.8670   -4.4870    0.0670 C   0  0  0  0  0  0  0  0  0  0  0  0
    9.6380   -3.9390   -0.7090 O   0  0  0  0  0  0  0  0  0  0  0  0
    8.3170   -5.7600   -0.0580 O   0  0  0  0  0  0  0  0  0  0  0  0
    6.9710   -6.0830    0.2320 C   0  0  0  0  0  0  0  0  0  0  0  0
    5.9150   -5.9760   -0.6670 C   0  0  0  0  0  3  0  0  0  0  0  0
    4.6200   -6.2840   -0.2450 C   0  0  0  0  0  3  0  0  0  0  0  0
    4.3890   -6.7110    1.0620 C   0  0  0  0  0  3  0  0  0  0  0  0
    5.4540   -6.8420    1.9520 C   0  0  0  0  0  3  0  0  0  0  0  0
    6.7480   -6.5280    1.5370 C   0  0  0  0  0  3  0  0  0  0  0  0
  1  2  2  0  0  0  0
  2  9  1  0  0  0  0
  2  3  1  0  0  0  0
  4  3  2  0  0  0  0
  4 21  1  0  0  0  0
  5  4  1  0  0  0  0
  6  1  1  0  0  0  0
  6  5  1  0  0  0  0
  7  6  2  0  0  0  0
  8  5  1  0  0  0  0
  9 10  1  0  0  0  0
 10 11  2  0  0  0  0
 12 11  1  0  0  0  0
 13 12  2  0  0  0  0
 14 13  1  0  0  0  0
 14  9  2  0  0  0  0
 15 13  1  0  0  0  0
 15 18  1  0  0  0  0
 16 15  1  0  0  0  0
 17 15  1  0  0  0  0
 19 20  1  0  0  0  0
 20  1  1  0  0  0  0
 22 21  1  0  0  0  0
 23 22  1  0  0  0  0
 24 23  1  0  0  0  0
 25 24  2  0  0  0  0
 26 24  1  0  0  0  0
 26 27  1  0  0  0  0
 27 32  1  0  0  0  0
 28 29  1  0  0  0  0
 28 27  2  0  0  0  0
 29 30  2  0  0  0  0
 30 31  1  0  0  0  0
 32 31  2  0  0  0  0
M  END
>  <minimizedAffinity>
-7.26155281

$$$$

 OpenBabel09122219593D

 32 34  0  0  0  0  0  0  0  0999 V2000
   10.0890    1.7830    1.4930 C   0  0  0  0  0  0  0  0  0  0  0  0
   10.6710    2.4350    0.4690 C   0  0  0  0  0  0  0  0  0  0  0  0
   10.8680    1.8840   -0.7820 N   0  0  0  0  0  0  0  0  0  0  0  0
   10.4140    0.6950   -0.9830 C   0  0  0  0  0  0  0  0  0  0  0  0
    9.7840   -0.0470   -0.0400 N   0  0  0  0  0  0  0  0  0  0  0  0
    9.6040    0.4110    1.2340 C   0  0  0  0  0  0  0  0  0  0  0  0
    9.0460   -0.2650    2.0900 O   0  0  0  0  0  0  0  0  0  0  0  0
    9.4550   -0.9780   -0.2450 H   0  0  0  0  0  0  0  0  0  0  0  0
   11.0420    3.8640    0.5950 C   0  0  0  0  0  0  0  0  0  0  0  0
   12.1800    4.2750    1.2990 C   0  0  0  0  0  3  0  0  0  0  0  0
   12.4850    5.6320    1.4200 C   0  0  0  0  0  3  0  0  0  0  0  0
   11.6590    6.5910    0.8340 C   0  0  0  0  0  3  0  0  0  0  0  0
   10.5240    6.2040    0.1080 C   0  0  0  0  0  0  0  0  0  0  0  0
   10.2250    4.8360   -0.0030 C   0  0  0  0  0  3  0  0  0  0  0  0
    9.6130    7.2410   -0.5010 C   0  0  0  0  0  0  0  0  0  0  0  0
    8.3910    6.7310   -0.8190 F   0  0  0  0  0  0  0  0  0  0  0  0
    9.3750    8.2940    0.3290 F   0  0  0  0  0  0  0  0  0  0  0  0
   10.1030    7.7790   -1.6530 F   0  0  0  0  0  0  0  0  0  0  0  0
    9.5410    2.9280    3.9680 N   0  0  0  0  0  1  0  0  0  0  0  0
    9.7900    2.4090    2.8460 C   0  0  0  0  0  2  0  0  0  0  0  0
   10.5500   -0.0330   -2.5490 S   0  0  0  0  0  0  0  0  0  0  0  0
   12.0780   -1.0160   -2.4400 C   0  0  0  0  0  2  0  0  0  0  0  0
   12.2120   -1.8920   -1.1960 C   0  0  0  0  0  2  0  0  0  0  0  0
   11.4160   -3.1610   -1.3550 C   0  0  0  0  0  0  0  0  0  0  0  0
   11.9110   -4.2350   -1.6670 O   0  0  0  0  0  0  0  0  0  0  0  0
   10.0680   -2.8910   -1.1360 O   0  0  0  0  0  0  0  0  0  0  0  0
    9.2080   -3.6950   -0.3530 C   0  0  0  0  0  0  0  0  0  0  0  0
    8.4180   -4.7300   -0.8440 C   0  0  0  0  0  3  0  0  0  0  0  0
    7.5740   -5.4230    0.0270 C   0  0  0  0  0  3  0  0  0  0  0  0
    7.5330   -5.0900    1.3800 C   0  0  0  0  0  3  0  0  0  0  0  0
    8.3450   -4.0690    1.8720 C   0  0  0  0  0  3  0  0  0  0  0  0
    9.1840   -3.3700    1.0050 C   0  0  0  0  0  3  0  0  0  0  0  0
  1 20  1  0  0  0  0
  2  9  1  0  0  0  0
  2  1  2  0  0  0  0
  3  2  1  0  0  0  0
  4  3  2  0  0  0  0
  4  5  1  0  0  0  0
  5  6  1  0  0  0  0
  6  1  1  0  0  0  0
  6  7  2  0  0  0  0
  8  5  1  0  0  0  0
  9 10  1  0  0  0  0
 10 11  2  0  0  0  0
 12 11  1  0  0  0  0
 13 12  2  0  0  0  0
 14 13  1  0  0  0  0
 14  9  2  0  0  0  0
 15 13  1  0  0  0  0
 15 17  1  0  0  0  0
 16 15  1  0  0  0  0
 18 15  1  0  0  0  0
 20 19  1  0  0  0  0
 21 22  1  0  0  0  0
 21  4  1  0  0  0  0
 22 23  1  0  0  0  0
 24 23  1  0  0  0  0
 24 26  1  0  0  0  0
 25 24  2  0  0  0  0
 26 27  1  0  0  0  0
 27 32  1  0  0  0  0
 28 27  2  0  0  0  0
 28 29  1  0  0  0  0
 29 30  2  0  0  0  0
 30 31  1  0  0  0  0
 32 31  2  0  0  0  0
M  END
>  <minimizedAffinity>
-7.17824316

$$$$

 OpenBabel09122219593D

 32 34  0  0  0  0  0  0  0  0999 V2000
    8.9970   -3.5460    0.4620 C   0  0  0  0  0  0  0  0  0  0  0  0
    8.4990   -3.3940    1.7040 C   0  0  0  0  0  0  0  0  0  0  0  0
    7.5120   -4.1970    2.2410 N   0  0  0  0  0  0  0  0  0  0  0  0
    7.0900   -5.1780    1.5200 C   0  0  0  0  0  0  0  0  0  0  0  0
    7.5360   -5.4500    0.2700 N   0  0  0  0  0  0  0  0  0  0  0  0
    8.4700   -4.6670   -0.3460 C   0  0  0  0  0  0  0  0  0  0  0  0
    8.8640   -4.9060   -1.4810 O   0  0  0  0  0  0  0  0  0  0  0  0
    7.1670   -6.2260   -0.2580 H   0  0  0  0  0  0  0  0  0  0  0  0
    9.0810   -2.3990    2.6350 C   0  0  0  0  0  0  0  0  0  0  0  0
    9.5730   -2.7620    3.8930 C   0  0  0  0  0  3  0  0  0  0  0  0
   10.0900   -1.7940    4.7570 C   0  0  0  0  0  3  0  0  0  0  0  0
   10.1250   -0.4540    4.3670 C   0  0  0  0  0  3  0  0  0  0  0  0
    9.6550   -0.0690    3.1040 C   0  0  0  0  0  0  0  0  0  0  0  0
    9.1330   -1.0510    2.2470 C   0  0  0  0  0  3  0  0  0  0  0  0
    9.6650    1.3830    2.6930 C   0  0  0  0  0  0  0  0  0  0  0  0
    9.6660    2.2230    3.7650 F   0  0  0  0  0  0  0  0  0  0  0  0
   10.7590    1.7190    1.9540 F   0  0  0  0  0  0  0  0  0  0  0  0
    8.5850    1.7370    1.9420 F   0  0  0  0  0  0  0  0  0  0  0  0
   11.0930   -2.0430   -0.5800 N   0  0  0  0  0  1  0  0  0  0  0  0
   10.1420   -2.7250   -0.1070 C   0  0  0  0  0  2  0  0  0  0  0  0
    5.9120   -6.2770    2.1560 S   0  0  0  0  0  0  0  0  0  0  0  0
    4.5480   -5.1930    2.6880 C   0  0  0  0  0  2  0  0  0  0  0  0
    3.7480   -5.6840    3.8920 C   0  0  0  0  0  2  0  0  0  0  0  0
    4.2390   -5.0270    5.1560 C   0  0  0  0  0  0  0  0  0  0  0  0
    4.4580   -5.6360    6.1940 O   0  0  0  0  0  0  0  0  0  0  0  0
    4.3520   -3.6550    4.9500 O   0  0  0  0  0  0  0  0  0  0  0  0
    3.8630   -2.6690    5.8390 C   0  0  0  0  0  0  0  0  0  0  0  0
    2.5530   -2.2020    5.8680 C   0  0  0  0  0  3  0  0  0  0  0  0
    2.2040   -1.1910    6.7660 C   0  0  0  0  0  3  0  0  0  0  0  0
    3.1570   -0.6630    7.6360 C   0  0  0  0  0  3  0  0  0  0  0  0
    4.4620   -1.1520    7.6210 C   0  0  0  0  0  3  0  0  0  0  0  0
    4.8170   -2.1570    6.7210 C   0  0  0  0  0  3  0  0  0  0  0  0
  1  2  2  0  0  0  0
  2  3  1  0  0  0  0
  2  9  1  0  0  0  0
  4 21  1  0  0  0  0
  4  3  2  0  0  0  0
  5  4  1  0  0  0  0
  6  5  1  0  0  0  0
  6  1  1  0  0  0  0
  7  6  2  0  0  0  0
  8  5  1  0  0  0  0
  9 10  1  0  0  0  0
 10 11  2  0  0  0  0
 12 11  1  0  0  0  0
 13 12  2  0  0  0  0
 14  9  2  0  0  0  0
 14 13  1  0  0  0  0
 15 13  1  0  0  0  0
 15 16  1  0  0  0  0
 17 15  1  0  0  0  0
 18 15  1  0  0  0  0
 19 20  1  0  0  0  0
 20  1  1  0  0  0  0
 21 22  1  0  0  0  0
 22 23  1  0  0  0  0
 23 24  1  0  0  0  0
 24 25  2  0  0  0  0
 26 24  1  0  0  0  0
 26 27  1  0  0  0  0
 27 28  2  0  0  0  0
 27 32  1  0  0  0  0
 28 29  1  0  0  0  0
 29 30  2  0  0  0  0
 31 30  1  0  0  0  0
 32 31  2  0  0  0  0
M  END
>  <minimizedAffinity>
-6.79316378

$$$$

 OpenBabel09122219593D

 32 34  0  0  0  0  0  0  0  0999 V2000
    4.3250   -2.8320    5.5850 C   0  0  0  0  0  0  0  0  0  0  0  0
    5.3480   -3.6280    5.2210 C   0  0  0  0  0  0  0  0  0  0  0  0
    6.5710   -3.6510    5.8620 N   0  0  0  0  0  0  0  0  0  0  0  0
    6.7080   -2.9010    6.9010 C   0  0  0  0  0  0  0  0  0  0  0  0
    5.7420   -2.0820    7.3810 N   0  0  0  0  0  0  0  0  0  0  0  0
    4.5280   -1.9660    6.7660 C   0  0  0  0  0  0  0  0  0  0  0  0
    3.6580   -1.2160    7.1930 O   0  0  0  0  0  0  0  0  0  0  0  0
    5.9020   -1.5070    8.1950 H   0  0  0  0  0  0  0  0  0  0  0  0
    5.1770   -4.6370    4.1510 C   0  0  0  0  0  0  0  0  0  0  0  0
    4.1700   -5.6080    4.2030 C   0  0  0  0  0  3  0  0  0  0  0  0
    4.0540   -6.5620    3.1890 C   0  0  0  0  0  3  0  0  0  0  0  0
    4.9400   -6.5500    2.1110 C   0  0  0  0  0  3  0  0  0  0  0  0
    5.9440   -5.5760    2.0270 C   0  0  0  0  0  0  0  0  0  0  0  0
    6.0540   -4.6250    3.0550 C   0  0  0  0  0  3  0  0  0  0  0  0
    6.9220   -5.5800    0.8770 C   0  0  0  0  0  0  0  0  0  0  0  0
    7.7070   -4.4680    0.8650 F   0  0  0  0  0  0  0  0  0  0  0  0
    7.7750   -6.6410    0.9080 F   0  0  0  0  0  0  0  0  0  0  0  0
    6.3170   -5.6240   -0.3430 F   0  0  0  0  0  0  0  0  0  0  0  0
    1.8050   -2.8850    4.4090 N   0  0  0  0  0  1  0  0  0  0  0  0
    2.9470   -2.8610    4.9420 C   0  0  0  0  0  2  0  0  0  0  0  0
    8.1850   -2.9360    7.8060 S   0  0  0  0  0  0  0  0  0  0  0  0
    8.9530   -1.3240    7.4480 C   0  0  0  0  0  2  0  0  0  0  0  0
    9.1490   -1.0020    5.9680 C   0  0  0  0  0  2  0  0  0  0  0  0
   10.0070   -2.0490    5.3080 C   0  0  0  0  0  0  0  0  0  0  0  0
   11.1270   -2.3500    5.6980 O   0  0  0  0  0  0  0  0  0  0  0  0
    9.3430   -2.5570    4.1960 O   0  0  0  0  0  0  0  0  0  0  0  0
    9.5550   -2.1210    2.8670 C   0  0  0  0  0  0  0  0  0  0  0  0
    9.0680   -0.9320    2.3320 C   0  0  0  0  0  3  0  0  0  0  0  0
    9.3090   -0.6350    0.9890 C   0  0  0  0  0  3  0  0  0  0  0  0
   10.0430   -1.5140    0.1940 C   0  0  0  0  0  3  0  0  0  0  0  0
   10.5510   -2.6910    0.7410 C   0  0  0  0  0  3  0  0  0  0  0  0
   10.3070   -2.9950    2.0800 C   0  0  0  0  0  3  0  0  0  0  0  0
  1  6  1  0  0  0  0
  2  1  2  0  0  0  0
  2  3  1  0  0  0  0
  3  4  2  0  0  0  0
  4  5  1  0  0  0  0
  4 21  1  0  0  0  0
  5  8  1  0  0  0  0
  6  7  2  0  0  0  0
  6  5  1  0  0  0  0
  9 10  1  0  0  0  0
  9  2  1  0  0  0  0
 11 10  2  0  0  0  0
 12 11  1  0  0  0  0
 13 12  2  0  0  0  0
 13 14  1  0  0  0  0
 14  9  2  0  0  0  0
 15 17  1  0  0  0  0
 15 13  1  0  0  0  0
 16 15  1  0  0  0  0
 18 15  1  0  0  0  0
 19 20  1  0  0  0  0
 20  1  1  0  0  0  0
 22 21  1  0  0  0  0
 23 22  1  0  0  0  0
 24 25  2  0  0  0  0
 24 23  1  0  0  0  0
 26 24  1  0  0  0  0
 27 26  1  0  0  0  0
 28 27  1  0  0  0  0
 29 28  2  0  0  0  0
 30 31  2  0  0  0  0
 30 29  1  0  0  0  0
 31 32  1  0  0  0  0
 32 27  2  0  0  0  0
M  END
>  <minimizedAffinity>
-6.78992605

$$$$
