
 OpenBabel09122222393D

 32 34  0  0  0  0  0  0  0  0999 V2000
    4.3250   -2.8320    5.5850 C   0  0  0  0  0  0  0  0  0  0  0  0
    5.3480   -3.6280    5.2210 C   0  0  0  0  0  0  0  0  0  0  0  0
    6.5710   -3.6510    5.8620 N   0  0  0  0  0  0  0  0  0  0  0  0
    6.7080   -2.9010    6.9010 C   0  0  0  0  0  0  0  0  0  0  0  0
    5.7420   -2.0820    7.3810 N   0  0  0  0  0  0  0  0  0  0  0  0
    4.5280   -1.9660    6.7660 C   0  0  0  0  0  0  0  0  0  0  0  0
    3.6580   -1.2160    7.1930 O   0  0  0  0  0  0  0  0  0  0  0  0
    5.9020   -1.5070    8.1950 H   0  0  0  0  0  0  0  0  0  0  0  0
    5.1770   -4.6370    4.1510 C   0  0  0  0  0  0  0  0  0  0  0  0
    4.1700   -5.6080    4.2030 C   0  0  0  0  0  3  0  0  0  0  0  0
    4.0540   -6.5620    3.1890 C   0  0  0  0  0  3  0  0  0  0  0  0
    4.9400   -6.5500    2.1110 C   0  0  0  0  0  3  0  0  0  0  0  0
    5.9440   -5.5760    2.0270 C   0  0  0  0  0  0  0  0  0  0  0  0
    6.0540   -4.6250    3.0550 C   0  0  0  0  0  3  0  0  0  0  0  0
    6.9220   -5.5800    0.8770 C   0  0  0  0  0  0  0  0  0  0  0  0
    7.7070   -4.4680    0.8650 F   0  0  0  0  0  0  0  0  0  0  0  0
    7.7750   -6.6410    0.9080 F   0  0  0  0  0  0  0  0  0  0  0  0
    6.3170   -5.6240   -0.3430 F   0  0  0  0  0  0  0  0  0  0  0  0
    1.8050   -2.8850    4.4090 N   0  0  0  0  0  1  0  0  0  0  0  0
    2.9470   -2.8610    4.9420 C   0  0  0  0  0  2  0  0  0  0  0  0
    8.1850   -2.9360    7.8060 S   0  0  0  0  0  0  0  0  0  0  0  0
    8.9530   -1.3240    7.4480 C   0  0  0  0  0  2  0  0  0  0  0  0
    9.1490   -1.0020    5.9680 C   0  0  0  0  0  2  0  0  0  0  0  0
   10.0070   -2.0490    5.3080 C   0  0  0  0  0  0  0  0  0  0  0  0
   11.1270   -2.3500    5.6980 O   0  0  0  0  0  0  0  0  0  0  0  0
    9.3430   -2.5570    4.1960 O   0  0  0  0  0  0  0  0  0  0  0  0
    9.5550   -2.1210    2.8670 C   0  0  0  0  0  0  0  0  0  0  0  0
    9.0680   -0.9320    2.3320 C   0  0  0  0  0  3  0  0  0  0  0  0
    9.3090   -0.6350    0.9890 C   0  0  0  0  0  3  0  0  0  0  0  0
   10.0430   -1.5140    0.1940 C   0  0  0  0  0  3  0  0  0  0  0  0
   10.5510   -2.6910    0.7410 C   0  0  0  0  0  3  0  0  0  0  0  0
   10.3070   -2.9950    2.0800 C   0  0  0  0  0  3  0  0  0  0  0  0
  1  6  1  0  0  0  0
  2  1  2  0  0  0  0
  2  3  1  0  0  0  0
  3  4  2  0  0  0  0
  4  5  1  0  0  0  0
  4 21  1  0  0  0  0
  5  8  1  0  0  0  0
  6  7  2  0  0  0  0
  6  5  1  0  0  0  0
  9 10  1  0  0  0  0
  9  2  1  0  0  0  0
 11 10  2  0  0  0  0
 12 11  1  0  0  0  0
 13 12  2  0  0  0  0
 13 14  1  0  0  0  0
 14  9  2  0  0  0  0
 15 17  1  0  0  0  0
 15 13  1  0  0  0  0
 16 15  1  0  0  0  0
 18 15  1  0  0  0  0
 19 20  1  0  0  0  0
 20  1  1  0  0  0  0
 22 21  1  0  0  0  0
 23 22  1  0  0  0  0
 24 25  2  0  0  0  0
 24 23  1  0  0  0  0
 26 24  1  0  0  0  0
 27 26  1  0  0  0  0
 28 27  1  0  0  0  0
 29 28  2  0  0  0  0
 30 31  2  0  0  0  0
 30 29  1  0  0  0  0
 31 32  1  0  0  0  0
 32 27  2  0  0  0  0
M  END
>  <minimizedAffinity>
-6.78992605

$$$$
