
 OpenBabel09132204463D

 25 27  0  0  1  0  0  0  0  0999 V2000
    1.6710   -1.5510    5.1580 C   0  0  0  0  0  1  0  0  0  0  0  0
    2.5200   -2.8100    5.2620 C   0  0  1  0  0  0  0  0  0  0  0  0
    3.8480   -2.7200    4.5150 C   0  0  1  0  0  3  0  0  0  0  0  0
    4.6640   -3.8220    5.1820 C   0  0  2  0  0  3  0  0  0  0  0  0
    4.2290   -3.9090    6.5600 O   0  0  0  0  0  0  0  0  0  0  0  0
    2.9490   -3.2410    6.6790 C   0  0  1  0  0  3  0  0  0  0  0  0
    3.0430   -2.2280    7.7060 N   0  0  0  0  0  0  0  0  0  0  0  0
    1.9940   -1.8140    8.4900 C   0  0  0  0  0  3  0  0  0  0  0  0
    2.3500   -0.8760    9.3410 N   0  0  0  0  0  0  0  0  0  0  0  0
    3.6880   -0.6820    9.1050 C   0  0  0  0  0  0  0  0  0  0  0  0
    4.6340    0.1620    9.6670 C   0  0  0  0  0  2  0  0  0  0  0  0
    5.9100    0.1350    9.2040 N   0  0  0  0  0  0  0  0  0  0  0  0
    6.2220   -0.7140    8.2100 C   0  0  0  0  0  0  0  0  0  0  0  0
    7.5190   -0.7020    7.7860 N   0  0  0  0  0  0  0  0  0  0  0  0
    5.3870   -1.5680    7.5950 N   0  0  0  0  0  2  0  0  0  0  0  0
    4.1410   -1.5100    8.0920 C   0  0  0  0  0  0  0  0  0  0  0  0
    7.8090   -1.3600    7.0870 H   0  0  0  0  0  0  0  0  0  0  0  0
    8.1570   -0.1000    8.2760 H   0  0  0  0  0  0  0  0  0  0  0  0
    1.7290   -3.8600    4.6400 O   0  0  0  0  0  0  0  0  0  0  0  0
    2.1820   -4.7160    4.7630 H   0  0  0  0  0  0  0  0  0  0  0  0
    3.7000   -2.9500    3.1150 O   0  0  0  0  0  0  0  0  0  0  0  0
    2.7750   -3.2340    2.9680 H   0  0  0  0  0  0  0  0  0  0  0  0
    6.1700   -3.5750    5.1320 C   0  0  0  0  0  2  0  0  0  0  0  0
    6.6010   -3.5420    3.7700 O   0  0  0  0  0  0  0  0  0  0  0  0
    6.2890   -4.3780    3.3740 H   0  0  0  0  0  0  0  0  0  0  0  0
  2  1  1  1  0  0  0
  2  6  1  0  0  0  0
  3 21  1  6  0  0  0
  3  4  1  0  0  0  0
  3  2  1  0  0  0  0
  4 23  1  1  0  0  0
  4  5  1  0  0  0  0
  5  6  1  0  0  0  0
  6  7  1  1  0  0  0
  7 16  1  0  0  0  0
  7  8  1  0  0  0  0
  8  9  2  0  0  0  0
 10  9  1  0  0  0  0
 10 11  1  0  0  0  0
 12 11  1  0  0  0  0
 13 12  2  0  0  0  0
 14 13  1  0  0  0  0
 14 18  1  0  0  0  0
 15 16  1  0  0  0  0
 15 13  1  0  0  0  0
 16 10  2  0  0  0  0
 17 14  1  0  0  0  0
 19 20  1  0  0  0  0
 19  2  1  0  0  0  0
 22 21  1  0  0  0  0
 24 23  1  0  0  0  0
 25 24  1  0  0  0  0
M  END
>  <minimizedAffinity>
-5.28534937

$$$$
