
 OpenBabel09132204463D

 25 27  0  0  1  0  0  0  0  0999 V2000
    5.3990   -2.6610    9.6740 C   0  0  0  0  0  1  0  0  0  0  0  0
    6.3090   -1.8940    8.7260 C   0  0  1  0  0  0  0  0  0  0  0  0
    7.2470   -2.7850    7.9160 C   0  0  1  0  0  3  0  0  0  0  0  0
    7.6300   -1.8740    6.7550 C   0  0  2  0  0  3  0  0  0  0  0  0
    6.4970   -1.0120    6.4890 O   0  0  0  0  0  0  0  0  0  0  0  0
    5.6180   -1.0430    7.6390 C   0  0  1  0  0  3  0  0  0  0  0  0
    4.2930   -1.4270    7.2070 N   0  0  0  0  0  0  0  0  0  0  0  0
    3.1340   -1.1120    7.8730 C   0  0  0  0  0  3  0  0  0  0  0  0
    2.0680   -1.5880    7.2670 N   0  0  0  0  0  0  0  0  0  0  0  0
    2.5560   -2.2310    6.1580 C   0  0  0  0  0  0  0  0  0  0  0  0
    1.9470   -2.9290    5.1250 C   0  0  0  0  0  2  0  0  0  0  0  0
    2.7140   -3.4780    4.1490 N   0  0  0  0  0  0  0  0  0  0  0  0
    4.0490   -3.3280    4.2100 C   0  0  0  0  0  0  0  0  0  0  0  0
    4.7700   -3.8970    3.2010 N   0  0  0  0  0  0  0  0  0  0  0  0
    4.7380   -2.6770    5.1620 N   0  0  0  0  0  2  0  0  0  0  0  0
    3.9380   -2.1460    6.0990 C   0  0  0  0  0  0  0  0  0  0  0  0
    5.7630   -3.7590    3.1750 H   0  0  0  0  0  0  0  0  0  0  0  0
    4.2540   -4.3420    2.4620 H   0  0  0  0  0  0  0  0  0  0  0  0
    7.1250   -1.0450    9.5780 O   0  0  0  0  0  0  0  0  0  0  0  0
    7.6640   -0.4550    9.0180 H   0  0  0  0  0  0  0  0  0  0  0  0
    8.3910   -3.1900    8.6650 O   0  0  0  0  0  0  0  0  0  0  0  0
    8.3690   -2.6970    9.5110 H   0  0  0  0  0  0  0  0  0  0  0  0
    8.0080   -2.6360    5.4870 C   0  0  0  0  0  2  0  0  0  0  0  0
    8.7780   -1.7860    4.6340 O   0  0  0  0  0  0  0  0  0  0  0  0
    8.2410   -0.9820    4.5070 H   0  0  0  0  0  0  0  0  0  0  0  0
  2 19  1  0  0  0  0
  2  1  1  1  0  0  0
  3 21  1  1  0  0  0
  3  2  1  0  0  0  0
  4 23  1  6  0  0  0
  4  3  1  0  0  0  0
  5  4  1  0  0  0  0
  5  6  1  0  0  0  0
  6  7  1  6  0  0  0
  6  2  1  0  0  0  0
  7  8  1  0  0  0  0
  9  8  2  0  0  0  0
 10  9  1  0  0  0  0
 11 10  1  0  0  0  0
 12 13  2  0  0  0  0
 12 11  1  0  0  0  0
 13 15  1  0  0  0  0
 14 13  1  0  0  0  0
 15 16  1  0  0  0  0
 16 10  2  0  0  0  0
 16  7  1  0  0  0  0
 17 14  1  0  0  0  0
 18 14  1  0  0  0  0
 20 19  1  0  0  0  0
 21 22  1  0  0  0  0
 24 23  1  0  0  0  0
 25 24  1  0  0  0  0
M  END
>  <minimizedAffinity>
-3.66200852

$$$$
