
 OpenBabel09132204463D

 25 27  0  0  1  0  0  0  0  0999 V2000
    3.5470   -0.4520    9.5510 C   0  0  0  0  0  1  0  0  0  0  0  0
    2.9800   -1.5180    8.6240 C   0  0  1  0  0  0  0  0  0  0  0  0
    2.9230   -1.0920    7.1580 C   0  0  1  0  0  3  0  0  0  0  0  0
    2.8290   -2.4340    6.4400 C   0  0  2  0  0  3  0  0  0  0  0  0
    3.5570   -3.4020    7.2340 O   0  0  0  0  0  0  0  0  0  0  0  0
    3.7390   -2.8600    8.5640 C   0  0  1  0  0  3  0  0  0  0  0  0
    5.1480   -2.8650    8.8840 N   0  0  0  0  0  0  0  0  0  0  0  0
    5.8050   -3.9070    9.4930 C   0  0  0  0  0  3  0  0  0  0  0  0
    7.0830   -3.6500    9.6740 N   0  0  0  0  0  0  0  0  0  0  0  0
    7.2630   -2.3950    9.1510 C   0  0  0  0  0  0  0  0  0  0  0  0
    8.3720   -1.5690    9.0360 C   0  0  0  0  0  2  0  0  0  0  0  0
    8.2340   -0.3440    8.4680 N   0  0  0  0  0  0  0  0  0  0  0  0
    7.0210    0.0360    8.0300 C   0  0  0  0  0  0  0  0  0  0  0  0
    6.9410    1.2750    7.4640 N   0  0  0  0  0  0  0  0  0  0  0  0
    5.8870   -0.6810    8.0940 N   0  0  0  0  0  2  0  0  0  0  0  0
    6.0740   -1.8850    8.6550 C   0  0  0  0  0  0  0  0  0  0  0  0
    6.0680    1.5750    7.0700 H   0  0  0  0  0  0  0  0  0  0  0  0
    7.7960    1.7930    7.3710 H   0  0  0  0  0  0  0  0  0  0  0  0
    1.6160   -1.7370    9.0770 O   0  0  0  0  0  0  0  0  0  0  0  0
    1.2310   -2.4830    8.5800 H   0  0  0  0  0  0  0  0  0  0  0  0
    1.7960   -0.2650    6.8770 O   0  0  0  0  0  0  0  0  0  0  0  0
    1.2400   -0.2540    7.6820 H   0  0  0  0  0  0  0  0  0  0  0  0
    3.3930   -2.4020    5.0220 C   0  0  0  0  0  2  0  0  0  0  0  0
    4.7450   -2.8640    5.0360 O   0  0  0  0  0  0  0  0  0  0  0  0
    5.2060   -2.3100    5.6940 H   0  0  0  0  0  0  0  0  0  0  0  0
  2 19  1  0  0  0  0
  2  1  1  1  0  0  0
  3 21  1  1  0  0  0
  3  2  1  0  0  0  0
  4 23  1  6  0  0  0
  4  3  1  0  0  0  0
  4  5  1  0  0  0  0
  5  6  1  0  0  0  0
  6  2  1  0  0  0  0
  6  7  1  6  0  0  0
  7  8  1  0  0  0  0
  8  9  2  0  0  0  0
 10  9  1  0  0  0  0
 11 10  1  0  0  0  0
 12 11  1  0  0  0  0
 13 15  1  0  0  0  0
 13 12  2  0  0  0  0
 14 13  1  0  0  0  0
 15 16  1  0  0  0  0
 16  7  1  0  0  0  0
 16 10  2  0  0  0  0
 17 14  1  0  0  0  0
 18 14  1  0  0  0  0
 20 19  1  0  0  0  0
 21 22  1  0  0  0  0
 23 24  1  0  0  0  0
 24 25  1  0  0  0  0
M  END
>  <minimizedAffinity>
-2.92563081

$$$$
