
 OpenBabel09132204463D

 25 27  0  0  1  0  0  0  0  0999 V2000
    5.6110    0.6210    9.0250 C   0  0  0  0  0  1  0  0  0  0  0  0
    6.7440   -0.0800    8.2890 C   0  0  1  0  0  0  0  0  0  0  0  0
    7.8060   -0.6700    9.2130 C   0  0  1  0  0  3  0  0  0  0  0  0
    8.4810   -1.6970    8.3090 C   0  0  2  0  0  3  0  0  0  0  0  0
    7.4740   -2.1990    7.3970 O   0  0  0  0  0  0  0  0  0  0  0  0
    6.3550   -1.2800    7.4000 C   0  0  1  0  0  3  0  0  0  0  0  0
    5.1500   -2.0100    7.7230 N   0  0  0  0  0  0  0  0  0  0  0  0
    4.7170   -2.2730    8.9990 C   0  0  0  0  0  3  0  0  0  0  0  0
    3.5940   -2.9600    9.0110 N   0  0  0  0  0  0  0  0  0  0  0  0
    3.2830   -3.1400    7.6870 C   0  0  0  0  0  0  0  0  0  0  0  0
    2.2330   -3.7770    7.0410 C   0  0  0  0  0  2  0  0  0  0  0  0
    2.2020   -3.8000    5.6840 N   0  0  0  0  0  0  0  0  0  0  0  0
    3.1940   -3.2020    5.0020 C   0  0  0  0  0  0  0  0  0  0  0  0
    3.1110   -3.2530    3.6400 N   0  0  0  0  0  0  0  0  0  0  0  0
    4.2530   -2.5630    5.5250 N   0  0  0  0  0  2  0  0  0  0  0  0
    4.2360   -2.5590    6.8670 C   0  0  0  0  0  0  0  0  0  0  0  0
    3.7970   -2.7690    3.0920 H   0  0  0  0  0  0  0  0  0  0  0  0
    2.2950   -3.6870    3.2460 H   0  0  0  0  0  0  0  0  0  0  0  0
    7.3770    0.9510    7.4840 O   0  0  0  0  0  0  0  0  0  0  0  0
    8.0530    0.5400    6.9120 H   0  0  0  0  0  0  0  0  0  0  0  0
    8.7310    0.3130    9.6740 O   0  0  0  0  0  0  0  0  0  0  0  0
    8.5370    1.1400    9.1880 H   0  0  0  0  0  0  0  0  0  0  0  0
    9.1080   -2.8580    9.0760 C   0  0  0  0  0  2  0  0  0  0  0  0
    8.0840   -3.7710    9.4780 O   0  0  0  0  0  0  0  0  0  0  0  0
    7.4310   -3.2360    9.9680 H   0  0  0  0  0  0  0  0  0  0  0  0
  2  1  1  1  0  0  0
  2  3  1  0  0  0  0
  3 21  1  6  0  0  0
  4 23  1  1  0  0  0
  4  3  1  0  0  0  0
  5  6  1  0  0  0  0
  5  4  1  0  0  0  0
  6  7  1  1  0  0  0
  6  2  1  0  0  0  0
  7  8  1  0  0  0  0
  8  9  2  0  0  0  0
 10  9  1  0  0  0  0
 11 10  1  0  0  0  0
 12 11  1  0  0  0  0
 13 15  1  0  0  0  0
 13 12  2  0  0  0  0
 14 13  1  0  0  0  0
 15 16  1  0  0  0  0
 16 10  2  0  0  0  0
 16  7  1  0  0  0  0
 17 14  1  0  0  0  0
 18 14  1  0  0  0  0
 19  2  1  0  0  0  0
 20 19  1  0  0  0  0
 22 21  1  0  0  0  0
 23 24  1  0  0  0  0
 24 25  1  0  0  0  0
M  END
>  <minimizedAffinity>
-3.03845716

$$$$
