
 OpenBabel09132204463D

 25 27  0  0  1  0  0  0  0  0999 V2000
    3.5600   -0.3220    8.3340 C   0  0  0  0  0  1  0  0  0  0  0  0
    2.9480   -1.6460    7.9010 C   0  0  1  0  0  0  0  0  0  0  0  0
    2.7680   -1.7760    6.3900 C   0  0  1  0  0  3  0  0  0  0  0  0
    2.6500   -3.2860    6.2120 C   0  0  2  0  0  3  0  0  0  0  0  0
    3.4600   -3.9080    7.2390 O   0  0  0  0  0  0  0  0  0  0  0  0
    3.7310   -2.9240    8.2660 C   0  0  1  0  0  3  0  0  0  0  0  0
    5.1610   -2.8220    8.4520 N   0  0  0  0  0  0  0  0  0  0  0  0
    5.7790   -2.6640    9.6680 C   0  0  0  0  0  3  0  0  0  0  0  0
    7.0880   -2.5940    9.5550 N   0  0  0  0  0  0  0  0  0  0  0  0
    7.3280   -2.7230    8.2100 C   0  0  0  0  0  0  0  0  0  0  0  0
    8.4910   -2.7310    7.4540 C   0  0  0  0  0  2  0  0  0  0  0  0
    8.4080   -2.8670    6.1060 N   0  0  0  0  0  0  0  0  0  0  0  0
    7.1950   -2.9920    5.5390 C   0  0  0  0  0  0  0  0  0  0  0  0
    7.1710   -3.1290    4.1820 N   0  0  0  0  0  0  0  0  0  0  0  0
    6.0120   -2.9940    6.1740 N   0  0  0  0  0  2  0  0  0  0  0  0
    6.1450   -2.8650    7.5040 C   0  0  0  0  0  0  0  0  0  0  0  0
    6.2920   -3.2840    3.7240 H   0  0  0  0  0  0  0  0  0  0  0  0
    8.0560   -3.1770    3.7090 H   0  0  0  0  0  0  0  0  0  0  0  0
    1.6290   -1.6790    8.5110 O   0  0  0  0  0  0  0  0  0  0  0  0
    1.2240   -2.5520    8.3480 H   0  0  0  0  0  0  0  0  0  0  0  0
    1.6040   -1.0990    5.9220 O   0  0  0  0  0  0  0  0  0  0  0  0
    1.1110   -0.7960    6.7120 H   0  0  0  0  0  0  0  0  0  0  0  0
    3.1010   -3.7700    4.8360 C   0  0  0  0  0  2  0  0  0  0  0  0
    3.8950   -2.7580    4.2130 O   0  0  0  0  0  0  0  0  0  0  0  0
    3.3500   -1.9490    4.2260 H   0  0  0  0  0  0  0  0  0  0  0  0
  2  6  1  0  0  0  0
  2  1  1  1  0  0  0
  2 19  1  0  0  0  0
  3 21  1  1  0  0  0
  3  2  1  0  0  0  0
  4 23  1  6  0  0  0
  4  3  1  0  0  0  0
  4  5  1  0  0  0  0
  5  6  1  0  0  0  0
  6  7  1  6  0  0  0
  7  8  1  0  0  0  0
  9  8  2  0  0  0  0
 10  9  1  0  0  0  0
 11 10  1  0  0  0  0
 12 11  1  0  0  0  0
 13 12  2  0  0  0  0
 13 15  1  0  0  0  0
 14 13  1  0  0  0  0
 15 16  1  0  0  0  0
 16 10  2  0  0  0  0
 16  7  1  0  0  0  0
 17 14  1  0  0  0  0
 18 14  1  0  0  0  0
 20 19  1  0  0  0  0
 21 22  1  0  0  0  0
 24 25  1  0  0  0  0
 24 23  1  0  0  0  0
M  END
>  <minimizedAffinity>
-5.21654129

$$$$
