
 OpenBabel09132204463D

 31 35  0  0  0  0  0  0  0  0999 V2000
   14.1910    8.4570   -2.8680 C   0  0  0  0  0  0  0  0  0  0  0  0
   13.2020    9.3570   -2.4340 C   0  0  0  0  0  3  0  0  0  0  0  0
   12.2160    8.9930   -1.5100 C   0  0  0  0  0  3  0  0  0  0  0  0
   12.2400    7.6810   -1.0220 C   0  0  0  0  0  0  0  0  0  0  0  0
   13.1970    6.7580   -1.4340 C   0  0  0  0  0  0  0  0  0  0  0  0
   14.1820    7.1430   -2.3580 C   0  0  0  0  0  3  0  0  0  0  0  0
   12.9980    5.5450   -0.8260 N   0  0  0  0  0  0  0  0  0  0  0  0
   11.9190    5.6780   -0.0780 C   0  0  0  0  0  0  0  0  0  0  0  0
   11.4660    6.9890   -0.1110 N   0  0  0  0  0  0  0  0  0  0  0  0
   11.3300    4.5830    0.6930 C   0  0  0  0  0  0  0  0  0  0  0  0
   10.3680    3.7350    0.1340 C   0  0  0  0  0  3  0  0  0  0  0  0
    9.8290    2.6890    0.8870 C   0  0  0  0  0  3  0  0  0  0  0  0
   10.2470    2.4680    2.2030 C   0  0  0  0  0  0  0  0  0  0  0  0
   11.2350    3.2860    2.7510 C   0  0  0  0  0  3  0  0  0  0  0  0
   11.7730    4.3360    1.9970 C   0  0  0  0  0  3  0  0  0  0  0  0
    9.6520    1.4010    2.8190 O   0  0  0  0  0  0  0  0  0  0  0  0
    9.1210    0.3610    1.9960 C   0  0  0  0  0  2  0  0  0  0  0  0
    9.1310   -1.0060    2.6430 C   0  0  0  0  0  0  0  0  0  0  0  0
    9.5150   -1.1270    3.9820 C   0  0  0  0  0  3  0  0  0  0  0  0
    9.4960   -2.3810    4.5740 C   0  0  0  0  0  3  0  0  0  0  0  0
    9.1210   -3.5070    3.9340 N   0  0  0  0  0  0  0  0  0  0  0  0
    8.7540   -3.3720    2.6410 C   0  0  0  0  0  3  0  0  0  0  0  0
    8.7360   -2.1620    1.9650 C   0  0  0  0  0  3  0  0  0  0  0  0
   10.4020    7.5410    0.7040 C   0  0  0  0  0  3  0  0  0  0  0  0
   10.8270    8.6750    1.6490 C   0  0  0  0  0  2  0  0  0  0  0  0
    9.5360    9.4450    1.8780 C   0  0  0  0  0  2  0  0  0  0  0  0
    8.8840    9.4520    0.5050 C   0  0  0  0  0  2  0  0  0  0  0  0
    9.1940    8.0780   -0.0860 C   0  0  0  0  0  2  0  0  0  0  0  0
   15.6820   10.0830   -3.7600 O   0  0  0  0  0  1  0  0  0  0  0  0
   15.2450    8.8930   -3.8660 C   0  0  0  0  0  0  0  0  0  0  0  0
   15.6160    8.0410   -4.7330 O   0  0  0  0  0  0  0  0  0  0  0  0
  1  2  2  0  0  0  0
  1  6  1  0  0  0  0
  2  3  1  0  0  0  0
  3  4  2  0  0  0  0
  4  9  1  0  0  0  0
  5  4  1  0  0  0  0
  5  7  1  0  0  0  0
  6  5  2  0  0  0  0
  7  8  2  0  0  0  0
  8 10  1  0  0  0  0
  9  8  1  0  0  0  0
  9 24  1  0  0  0  0
 10 15  1  0  0  0  0
 11 10  2  0  0  0  0
 11 12  1  0  0  0  0
 12 13  2  0  0  0  0
 13 14  1  0  0  0  0
 13 16  1  0  0  0  0
 15 14  2  0  0  0  0
 17 18  1  0  0  0  0
 17 16  1  0  0  0  0
 18 19  1  0  0  0  0
 19 20  2  0  0  0  0
 21 20  1  0  0  0  0
 22 21  2  0  0  0  0
 23 22  1  0  0  0  0
 23 18  2  0  0  0  0
 24 25  1  0  0  0  0
 25 26  1  0  0  0  0
 27 26  1  0  0  0  0
 28 27  1  0  0  0  0
 28 24  1  0  0  0  0
 30 29  1  0  0  0  0
 30  1  1  0  0  0  0
 31 30  2  0  0  0  0
M  END
>  <minimizedAffinity>
-6.12325096

$$$$
