
 OpenBabel09132204463D

 31 35  0  0  0  0  0  0  0  0999 V2000
    8.9960   -2.0490    2.3330 C   0  0  0  0  0  0  0  0  0  0  0  0
    9.3560   -2.3500    1.0090 C   0  0  0  0  0  3  0  0  0  0  0  0
    9.7850   -1.3670    0.1100 C   0  0  0  0  0  3  0  0  0  0  0  0
    9.8440   -0.0480    0.5750 C   0  0  0  0  0  0  0  0  0  0  0  0
    9.4870    0.2920    1.8760 C   0  0  0  0  0  0  0  0  0  0  0  0
    9.0630   -0.7090    2.7660 C   0  0  0  0  0  3  0  0  0  0  0  0
    9.6150    1.6420    2.0810 N   0  0  0  0  0  0  0  0  0  0  0  0
   10.0050    2.1550    0.9290 C   0  0  0  0  0  0  0  0  0  0  0  0
   10.2270    1.1490    0.0010 N   0  0  0  0  0  0  0  0  0  0  0  0
   10.1980    3.5880    0.7070 C   0  0  0  0  0  0  0  0  0  0  0  0
    9.2660    4.3460   -0.0110 C   0  0  0  0  0  3  0  0  0  0  0  0
    9.4680    5.7160   -0.1990 C   0  0  0  0  0  3  0  0  0  0  0  0
   10.5950    6.3500    0.3320 C   0  0  0  0  0  0  0  0  0  0  0  0
   11.5060    5.6070    1.0810 C   0  0  0  0  0  3  0  0  0  0  0  0
   11.3060    4.2340    1.2680 C   0  0  0  0  0  3  0  0  0  0  0  0
   10.6590    7.6950    0.0890 O   0  0  0  0  0  0  0  0  0  0  0  0
    9.4400    8.3860   -0.1960 C   0  0  0  0  0  2  0  0  0  0  0  0
    9.2100    9.6110    0.6590 C   0  0  0  0  0  0  0  0  0  0  0  0
    9.4280    9.5340    2.0390 C   0  0  0  0  0  3  0  0  0  0  0  0
    9.2390   10.6710    2.8110 C   0  0  0  0  0  3  0  0  0  0  0  0
    8.8580   11.8630    2.3110 N   0  0  0  0  0  0  0  0  0  0  0  0
    8.6510   11.9190    0.9770 C   0  0  0  0  0  3  0  0  0  0  0  0
    8.8180   10.8400    0.1230 C   0  0  0  0  0  3  0  0  0  0  0  0
   10.8070    1.3200   -1.3170 C   0  0  0  0  0  3  0  0  0  0  0  0
   12.3320    1.4980   -1.3400 C   0  0  0  0  0  2  0  0  0  0  0  0
   12.7190    1.0360   -2.7360 C   0  0  0  0  0  2  0  0  0  0  0  0
   11.8290   -0.1750   -2.9640 C   0  0  0  0  0  2  0  0  0  0  0  0
   10.4970    0.1860   -2.3120 C   0  0  0  0  0  2  0  0  0  0  0  0
    7.4360   -3.7140    3.0080 O   0  0  0  0  0  0  0  0  0  0  0  0
    8.5410   -3.1450    3.2770 C   0  0  0  0  0  0  0  0  0  0  0  0
    9.2950   -3.4160    4.2630 O   0  0  0  0  0  1  0  0  0  0  0  0
  1  6  1  0  0  0  0
  1 30  1  0  0  0  0
  2  1  2  0  0  0  0
  3  4  2  0  0  0  0
  3  2  1  0  0  0  0
  4  5  1  0  0  0  0
  5  7  1  0  0  0  0
  5  6  2  0  0  0  0
  8  7  2  0  0  0  0
  9  4  1  0  0  0  0
  9  8  1  0  0  0  0
 10  8  1  0  0  0  0
 10 15  1  0  0  0  0
 11 10  2  0  0  0  0
 12 11  1  0  0  0  0
 12 13  2  0  0  0  0
 13 14  1  0  0  0  0
 14 15  2  0  0  0  0
 16 13  1  0  0  0  0
 17 16  1  0  0  0  0
 17 18  1  0  0  0  0
 18 19  1  0  0  0  0
 19 20  2  0  0  0  0
 21 20  1  0  0  0  0
 22 21  2  0  0  0  0
 23 18  2  0  0  0  0
 23 22  1  0  0  0  0
 24  9  1  0  0  0  0
 25 24  1  0  0  0  0
 26 25  1  0  0  0  0
 27 26  1  0  0  0  0
 27 28  1  0  0  0  0
 28 24  1  0  0  0  0
 29 30  2  0  0  0  0
 30 31  1  0  0  0  0
M  END
>  <minimizedAffinity>
-7.60605192

$$$$
