
 OpenBabel09132204463D

 31 35  0  0  0  0  0  0  0  0999 V2000
    8.9320   -2.1760    2.2530 C   0  0  0  0  0  0  0  0  0  0  0  0
    9.3190   -2.4160    0.9240 C   0  0  0  0  0  3  0  0  0  0  0  0
    9.7580   -1.3920    0.0770 C   0  0  0  0  0  3  0  0  0  0  0  0
    9.8010   -0.0940    0.6020 C   0  0  0  0  0  0  0  0  0  0  0  0
    9.4180    0.1860    1.9100 C   0  0  0  0  0  0  0  0  0  0  0  0
    8.9840   -0.8560    2.7460 C   0  0  0  0  0  3  0  0  0  0  0  0
    9.5350    1.5260    2.1770 N   0  0  0  0  0  0  0  0  0  0  0  0
    9.9430    2.0920    1.0570 C   0  0  0  0  0  0  0  0  0  0  0  0
   10.1880    1.1290    0.0890 N   0  0  0  0  0  0  0  0  0  0  0  0
   10.1320    3.5340    0.9030 C   0  0  0  0  0  0  0  0  0  0  0  0
   11.1500    4.2120    1.5810 C   0  0  0  0  0  3  0  0  0  0  0  0
   11.3170    5.5890    1.4080 C   0  0  0  0  0  3  0  0  0  0  0  0
   10.4760    6.3060    0.5510 C   0  0  0  0  0  0  0  0  0  0  0  0
    9.4850    5.6290   -0.1570 C   0  0  0  0  0  3  0  0  0  0  0  0
    9.3160    4.2500    0.0180 C   0  0  0  0  0  3  0  0  0  0  0  0
   10.7600    7.6410    0.4610 O   0  0  0  0  0  0  0  0  0  0  0  0
   11.6050    8.0780   -0.6070 C   0  0  0  0  0  2  0  0  0  0  0  0
   12.8980    8.7160   -0.1500 C   0  0  0  0  0  0  0  0  0  0  0  0
   14.0290    7.9150    0.0380 C   0  0  0  0  0  3  0  0  0  0  0  0
   15.2160    8.5140    0.4310 C   0  0  0  0  0  3  0  0  0  0  0  0
   15.3550    9.8380    0.6420 N   0  0  0  0  0  0  0  0  0  0  0  0
   14.2530   10.5970    0.4560 C   0  0  0  0  0  3  0  0  0  0  0  0
   13.0250   10.0920    0.0600 C   0  0  0  0  0  3  0  0  0  0  0  0
   10.7910    1.3620   -1.2080 C   0  0  0  0  0  3  0  0  0  0  0  0
   12.3240    1.4530   -1.2080 C   0  0  0  0  0  2  0  0  0  0  0  0
   12.6990    1.0730   -2.6310 C   0  0  0  0  0  2  0  0  0  0  0  0
   11.7450   -0.0650   -2.9540 C   0  0  0  0  0  2  0  0  0  0  0  0
   10.4280    0.3230   -2.2860 C   0  0  0  0  0  2  0  0  0  0  0  0
    8.8740   -3.3120    4.3430 O   0  0  0  0  0  1  0  0  0  0  0  0
    8.4670   -3.3150    3.1380 C   0  0  0  0  0  0  0  0  0  0  0  0
    7.7040   -4.1860    2.6160 O   0  0  0  0  0  0  0  0  0  0  0  0
  1  6  1  0  0  0  0
  1 30  1  0  0  0  0
  2  1  2  0  0  0  0
  3  4  2  0  0  0  0
  3  2  1  0  0  0  0
  4  5  1  0  0  0  0
  5  7  1  0  0  0  0
  5  6  2  0  0  0  0
  8  7  2  0  0  0  0
  9  4  1  0  0  0  0
  9  8  1  0  0  0  0
 10  8  1  0  0  0  0
 10 11  1  0  0  0  0
 12 11  2  0  0  0  0
 13 12  1  0  0  0  0
 14 15  1  0  0  0  0
 14 13  2  0  0  0  0
 15 10  2  0  0  0  0
 16 13  1  0  0  0  0
 17 18  1  0  0  0  0
 17 16  1  0  0  0  0
 18 19  2  0  0  0  0
 18 23  1  0  0  0  0
 19 20  1  0  0  0  0
 20 21  2  0  0  0  0
 22 21  1  0  0  0  0
 23 22  2  0  0  0  0
 24  9  1  0  0  0  0
 25 24  1  0  0  0  0
 26 25  1  0  0  0  0
 27 26  1  0  0  0  0
 27 28  1  0  0  0  0
 28 24  1  0  0  0  0
 30 29  1  0  0  0  0
 31 30  2  0  0  0  0
M  END
>  <minimizedAffinity>
-6.59152603

$$$$
