
 OpenBabel09122223063D

 31 35  0  0  0  0  0  0  0  0999 V2000
    9.7180    7.7700    1.9670 C   0  0  0  0  0  0  0  0  0  0  0  0
   10.4720    7.3360    3.0700 C   0  0  0  0  0  3  0  0  0  0  0  0
   10.9740    6.0330    3.1650 C   0  0  0  0  0  3  0  0  0  0  0  0
   10.6980    5.1550    2.1100 C   0  0  0  0  0  0  0  0  0  0  0  0
    9.9470    5.5440    1.0050 C   0  0  0  0  0  0  0  0  0  0  0  0
    9.4550    6.8570    0.9250 C   0  0  0  0  0  3  0  0  0  0  0  0
    9.8030    4.5050    0.1220 N   0  0  0  0  0  0  0  0  0  0  0  0
   10.4110    3.4690    0.6680 C   0  0  0  0  0  0  0  0  0  0  0  0
   11.0340    3.8410    1.8500 N   0  0  0  0  0  0  0  0  0  0  0  0
   10.4330    2.1350    0.0670 C   0  0  0  0  0  0  0  0  0  0  0  0
   11.1090    1.8890   -1.1330 C   0  0  0  0  0  3  0  0  0  0  0  0
   11.1240    0.6030   -1.6820 C   0  0  0  0  0  3  0  0  0  0  0  0
   10.4750   -0.4540   -1.0380 C   0  0  0  0  0  0  0  0  0  0  0  0
    9.8340   -0.2220    0.1790 C   0  0  0  0  0  3  0  0  0  0  0  0
    9.8160    1.0670    0.7260 C   0  0  0  0  0  3  0  0  0  0  0  0
   10.5840   -1.6610   -1.6720 O   0  0  0  0  0  0  0  0  0  0  0  0
   10.8070   -2.8240   -0.8720 C   0  0  0  0  0  2  0  0  0  0  0  0
   12.2570   -3.0640   -0.5210 C   0  0  0  0  0  0  0  0  0  0  0  0
   13.2480   -2.7770   -1.4660 C   0  0  0  0  0  3  0  0  0  0  0  0
   14.5770   -2.9760   -1.1240 C   0  0  0  0  0  3  0  0  0  0  0  0
   14.9840   -3.4300    0.0780 N   0  0  0  0  0  0  0  0  0  0  0  0
   14.0150   -3.7020    0.9790 C   0  0  0  0  0  3  0  0  0  0  0  0
   12.6610   -3.5310    0.7330 C   0  0  0  0  0  3  0  0  0  0  0  0
   11.9210    3.0110    2.6420 C   0  0  0  0  0  3  0  0  0  0  0  0
   13.3250    3.5910    2.8700 C   0  0  0  0  0  2  0  0  0  0  0  0
   13.7830    2.9090    4.1490 C   0  0  0  0  0  2  0  0  0  0  0  0
   12.5310    2.9010    5.0100 C   0  0  0  0  0  2  0  0  0  0  0  0
   11.3840    2.6380    4.0360 C   0  0  0  0  0  2  0  0  0  0  0  0
    8.3290    9.5270    2.7700 O   0  0  0  0  0  1  0  0  0  0  0  0
    9.1960    9.1910    1.9010 C   0  0  0  0  0  0  0  0  0  0  0  0
    9.6620    9.9430    0.9890 O   0  0  0  0  0  0  0  0  0  0  0  0
  1  2  1  0  0  0  0
  2  3  2  0  0  0  0
  4  3  1  0  0  0  0
  5  4  2  0  0  0  0
  6  5  1  0  0  0  0
  6  1  2  0  0  0  0
  7  8  2  0  0  0  0
  7  5  1  0  0  0  0
  8  9  1  0  0  0  0
  9  4  1  0  0  0  0
  9 24  1  0  0  0  0
 10  8  1  0  0  0  0
 10 15  1  0  0  0  0
 11 10  2  0  0  0  0
 12 11  1  0  0  0  0
 12 13  2  0  0  0  0
 13 14  1  0  0  0  0
 14 15  2  0  0  0  0
 16 13  1  0  0  0  0
 16 17  1  0  0  0  0
 17 18  1  0  0  0  0
 18 23  1  0  0  0  0
 19 20  1  0  0  0  0
 19 18  2  0  0  0  0
 20 21  2  0  0  0  0
 21 22  1  0  0  0  0
 23 22  2  0  0  0  0
 24 25  1  0  0  0  0
 24 28  1  0  0  0  0
 25 26  1  0  0  0  0
 26 27  1  0  0  0  0
 28 27  1  0  0  0  0
 30  1  1  0  0  0  0
 30 29  1  0  0  0  0
 31 30  2  0  0  0  0
M  END
>  <minimizedAffinity>
-8.14984226

$$$$

 OpenBabel09122223063D

 31 35  0  0  0  0  0  0  0  0999 V2000
    8.9960   -2.0490    2.3330 C   0  0  0  0  0  0  0  0  0  0  0  0
    9.3560   -2.3500    1.0090 C   0  0  0  0  0  3  0  0  0  0  0  0
    9.7850   -1.3670    0.1100 C   0  0  0  0  0  3  0  0  0  0  0  0
    9.8440   -0.0480    0.5750 C   0  0  0  0  0  0  0  0  0  0  0  0
    9.4870    0.2920    1.8760 C   0  0  0  0  0  0  0  0  0  0  0  0
    9.0630   -0.7090    2.7660 C   0  0  0  0  0  3  0  0  0  0  0  0
    9.6150    1.6420    2.0810 N   0  0  0  0  0  0  0  0  0  0  0  0
   10.0050    2.1550    0.9290 C   0  0  0  0  0  0  0  0  0  0  0  0
   10.2270    1.1490    0.0010 N   0  0  0  0  0  0  0  0  0  0  0  0
   10.1980    3.5880    0.7070 C   0  0  0  0  0  0  0  0  0  0  0  0
    9.2660    4.3460   -0.0110 C   0  0  0  0  0  3  0  0  0  0  0  0
    9.4680    5.7160   -0.1990 C   0  0  0  0  0  3  0  0  0  0  0  0
   10.5950    6.3500    0.3320 C   0  0  0  0  0  0  0  0  0  0  0  0
   11.5060    5.6070    1.0810 C   0  0  0  0  0  3  0  0  0  0  0  0
   11.3060    4.2340    1.2680 C   0  0  0  0  0  3  0  0  0  0  0  0
   10.6590    7.6950    0.0890 O   0  0  0  0  0  0  0  0  0  0  0  0
    9.4400    8.3860   -0.1960 C   0  0  0  0  0  2  0  0  0  0  0  0
    9.2100    9.6110    0.6590 C   0  0  0  0  0  0  0  0  0  0  0  0
    9.4280    9.5340    2.0390 C   0  0  0  0  0  3  0  0  0  0  0  0
    9.2390   10.6710    2.8110 C   0  0  0  0  0  3  0  0  0  0  0  0
    8.8580   11.8630    2.3110 N   0  0  0  0  0  0  0  0  0  0  0  0
    8.6510   11.9190    0.9770 C   0  0  0  0  0  3  0  0  0  0  0  0
    8.8180   10.8400    0.1230 C   0  0  0  0  0  3  0  0  0  0  0  0
   10.8070    1.3200   -1.3170 C   0  0  0  0  0  3  0  0  0  0  0  0
   12.3320    1.4980   -1.3400 C   0  0  0  0  0  2  0  0  0  0  0  0
   12.7190    1.0360   -2.7360 C   0  0  0  0  0  2  0  0  0  0  0  0
   11.8290   -0.1750   -2.9640 C   0  0  0  0  0  2  0  0  0  0  0  0
   10.4970    0.1860   -2.3120 C   0  0  0  0  0  2  0  0  0  0  0  0
    7.4360   -3.7140    3.0080 O   0  0  0  0  0  0  0  0  0  0  0  0
    8.5410   -3.1450    3.2770 C   0  0  0  0  0  0  0  0  0  0  0  0
    9.2950   -3.4160    4.2630 O   0  0  0  0  0  1  0  0  0  0  0  0
  1  6  1  0  0  0  0
  1 30  1  0  0  0  0
  2  1  2  0  0  0  0
  3  4  2  0  0  0  0
  3  2  1  0  0  0  0
  4  5  1  0  0  0  0
  5  7  1  0  0  0  0
  5  6  2  0  0  0  0
  8  7  2  0  0  0  0
  9  4  1  0  0  0  0
  9  8  1  0  0  0  0
 10  8  1  0  0  0  0
 10 15  1  0  0  0  0
 11 10  2  0  0  0  0
 12 11  1  0  0  0  0
 12 13  2  0  0  0  0
 13 14  1  0  0  0  0
 14 15  2  0  0  0  0
 16 13  1  0  0  0  0
 17 16  1  0  0  0  0
 17 18  1  0  0  0  0
 18 19  1  0  0  0  0
 19 20  2  0  0  0  0
 21 20  1  0  0  0  0
 22 21  2  0  0  0  0
 23 18  2  0  0  0  0
 23 22  1  0  0  0  0
 24  9  1  0  0  0  0
 25 24  1  0  0  0  0
 26 25  1  0  0  0  0
 27 26  1  0  0  0  0
 27 28  1  0  0  0  0
 28 24  1  0  0  0  0
 29 30  2  0  0  0  0
 30 31  1  0  0  0  0
M  END
>  <minimizedAffinity>
-7.60605192

$$$$

 OpenBabel09122223063D

 31 35  0  0  0  0  0  0  0  0999 V2000
    8.9780   -2.1240    2.2980 C   0  0  0  0  0  0  0  0  0  0  0  0
    9.3290   -2.3990    0.9660 C   0  0  0  0  0  3  0  0  0  0  0  0
    9.7610   -1.4010    0.0860 C   0  0  0  0  0  3  0  0  0  0  0  0
    9.8340   -0.0920    0.5790 C   0  0  0  0  0  0  0  0  0  0  0  0
    9.4870    0.2220    1.8890 C   0  0  0  0  0  0  0  0  0  0  0  0
    9.0600   -0.7940    2.7590 C   0  0  0  0  0  3  0  0  0  0  0  0
    9.6280    1.5670    2.1220 N   0  0  0  0  0  0  0  0  0  0  0  0
   10.0160    2.1010    0.9800 C   0  0  0  0  0  0  0  0  0  0  0  0
   10.2250    1.1130    0.0290 N   0  0  0  0  0  0  0  0  0  0  0  0
   10.2200    3.5370    0.7880 C   0  0  0  0  0  0  0  0  0  0  0  0
    9.3280    4.3040    0.0310 C   0  0  0  0  0  3  0  0  0  0  0  0
    9.5390    5.6770   -0.1270 C   0  0  0  0  0  3  0  0  0  0  0  0
   10.6360    6.3040    0.4720 C   0  0  0  0  0  0  0  0  0  0  0  0
   11.5060    5.5500    1.2590 C   0  0  0  0  0  3  0  0  0  0  0  0
   11.2960    4.1750    1.4160 C   0  0  0  0  0  3  0  0  0  0  0  0
   10.7120    7.6510    0.2510 O   0  0  0  0  0  0  0  0  0  0  0  0
   11.9890    8.2080   -0.0740 C   0  0  0  0  0  2  0  0  0  0  0  0
   12.3990    8.0130   -1.5160 C   0  0  0  0  0  0  0  0  0  0  0  0
   11.8710    8.8560   -2.4990 C   0  0  0  0  0  3  0  0  0  0  0  0
   12.2740    8.6850   -3.8150 C   0  0  0  0  0  3  0  0  0  0  0  0
   13.1590    7.7500   -4.2140 N   0  0  0  0  0  0  0  0  0  0  0  0
   13.6600    6.9440   -3.2520 C   0  0  0  0  0  3  0  0  0  0  0  0
   13.3220    7.0400   -1.9100 C   0  0  0  0  0  3  0  0  0  0  0  0
   10.7980    1.3080   -1.2880 C   0  0  0  0  0  3  0  0  0  0  0  0
   12.3250    1.4720   -1.3160 C   0  0  0  0  0  2  0  0  0  0  0  0
   12.7000    1.0380   -2.7240 C   0  0  0  0  0  2  0  0  0  0  0  0
   11.7980   -0.1590   -2.9740 C   0  0  0  0  0  2  0  0  0  0  0  0
   10.4720    0.2000   -2.3060 C   0  0  0  0  0  2  0  0  0  0  0  0
    7.5250   -3.9300    2.8350 O   0  0  0  0  0  0  0  0  0  0  0  0
    8.5190   -3.2360    3.2200 C   0  0  0  0  0  0  0  0  0  0  0  0
    9.1590   -3.3960    4.3060 O   0  0  0  0  0  1  0  0  0  0  0  0
  1  6  1  0  0  0  0
  1 30  1  0  0  0  0
  2  1  2  0  0  0  0
  3  4  2  0  0  0  0
  3  2  1  0  0  0  0
  4  5  1  0  0  0  0
  5  7  1  0  0  0  0
  5  6  2  0  0  0  0
  8  7  2  0  0  0  0
  9  4  1  0  0  0  0
  9  8  1  0  0  0  0
 10  8  1  0  0  0  0
 10 15  1  0  0  0  0
 11 10  2  0  0  0  0
 12 11  1  0  0  0  0
 12 13  2  0  0  0  0
 13 14  1  0  0  0  0
 14 15  2  0  0  0  0
 16 13  1  0  0  0  0
 17 16  1  0  0  0  0
 18 17  1  0  0  0  0
 19 18  2  0  0  0  0
 20 19  1  0  0  0  0
 21 20  2  0  0  0  0
 21 22  1  0  0  0  0
 22 23  2  0  0  0  0
 23 18  1  0  0  0  0
 24  9  1  0  0  0  0
 25 24  1  0  0  0  0
 26 25  1  0  0  0  0
 27 26  1  0  0  0  0
 27 28  1  0  0  0  0
 28 24  1  0  0  0  0
 29 30  2  0  0  0  0
 30 31  1  0  0  0  0
M  END
>  <minimizedAffinity>
-7.39874792

$$$$

 OpenBabel09122223063D

 31 35  0  0  0  0  0  0  0  0999 V2000
    9.5230    8.3350    1.1900 C   0  0  0  0  0  0  0  0  0  0  0  0
   10.1810    8.0800    2.4040 C   0  0  0  0  0  3  0  0  0  0  0  0
   10.6240    6.8000    2.7590 C   0  0  0  0  0  3  0  0  0  0  0  0
   10.3850    5.7600    1.8530 C   0  0  0  0  0  0  0  0  0  0  0  0
    9.7280    5.9710    0.6440 C   0  0  0  0  0  0  0  0  0  0  0  0
    9.2960    7.2630    0.3040 C   0  0  0  0  0  3  0  0  0  0  0  0
    9.6040    4.7970   -0.0550 N   0  0  0  0  0  0  0  0  0  0  0  0
   10.1310    3.8570    0.7050 C   0  0  0  0  0  0  0  0  0  0  0  0
   10.6860    4.4120    1.8490 N   0  0  0  0  0  0  0  0  0  0  0  0
   10.1410    2.4380    0.3450 C   0  0  0  0  0  0  0  0  0  0  0  0
   10.8130    1.9810   -0.7930 C   0  0  0  0  0  3  0  0  0  0  0  0
   10.8170    0.6190   -1.1090 C   0  0  0  0  0  3  0  0  0  0  0  0
   10.1590   -0.3040   -0.2910 C   0  0  0  0  0  0  0  0  0  0  0  0
    9.5220    0.1420    0.8660 C   0  0  0  0  0  3  0  0  0  0  0  0
    9.5150    1.5060    1.1810 C   0  0  0  0  0  3  0  0  0  0  0  0
   10.2570   -1.6040   -0.7050 O   0  0  0  0  0  0  0  0  0  0  0  0
   10.6180   -2.5930    0.2620 C   0  0  0  0  0  2  0  0  0  0  0  0
    9.4560   -3.4170    0.7660 C   0  0  0  0  0  0  0  0  0  0  0  0
    8.9800   -4.4790   -0.0100 C   0  0  0  0  0  3  0  0  0  0  0  0
    7.9310   -5.2460    0.4740 C   0  0  0  0  0  3  0  0  0  0  0  0
    7.3330   -5.0350    1.6640 N   0  0  0  0  0  0  0  0  0  0  0  0
    7.8050   -4.0060    2.4010 C   0  0  0  0  0  3  0  0  0  0  0  0
    8.8510   -3.1870    2.0050 C   0  0  0  0  0  3  0  0  0  0  0  0
   11.4820    3.7090    2.8350 C   0  0  0  0  0  3  0  0  0  0  0  0
   12.9540    3.4940    2.4510 C   0  0  0  0  0  2  0  0  0  0  0  0
   13.6500    3.3440    3.7950 C   0  0  0  0  0  2  0  0  0  0  0  0
   12.9630    4.3850    4.6640 C   0  0  0  0  0  2  0  0  0  0  0  0
   11.4980    4.3550    4.2330 C   0  0  0  0  0  2  0  0  0  0  0  0
    9.9400   10.6590    0.8910 O   0  0  0  0  0  1  0  0  0  0  0  0
    9.0640    9.7370    0.8420 C   0  0  0  0  0  0  0  0  0  0  0  0
    7.8430    9.8910    0.5250 O   0  0  0  0  0  0  0  0  0  0  0  0
  1  2  1  0  0  0  0
  2  3  2  0  0  0  0
  4  3  1  0  0  0  0
  5  4  2  0  0  0  0
  6  5  1  0  0  0  0
  6  1  2  0  0  0  0
  7  5  1  0  0  0  0
  7  8  2  0  0  0  0
  8  9  1  0  0  0  0
  9  4  1  0  0  0  0
  9 24  1  0  0  0  0
 10  8  1  0  0  0  0
 10 15  1  0  0  0  0
 11 10  2  0  0  0  0
 12 11  1  0  0  0  0
 12 13  2  0  0  0  0
 13 14  1  0  0  0  0
 14 15  2  0  0  0  0
 16 13  1  0  0  0  0
 16 17  1  0  0  0  0
 17 18  1  0  0  0  0
 18 23  1  0  0  0  0
 19 20  1  0  0  0  0
 19 18  2  0  0  0  0
 20 21  2  0  0  0  0
 21 22  1  0  0  0  0
 23 22  2  0  0  0  0
 24 28  1  0  0  0  0
 25 24  1  0  0  0  0
 25 26  1  0  0  0  0
 26 27  1  0  0  0  0
 28 27  1  0  0  0  0
 30 29  1  0  0  0  0
 30  1  1  0  0  0  0
 31 30  2  0  0  0  0
M  END
>  <minimizedAffinity>
-7.24098253

$$$$

 OpenBabel09122223063D

 31 35  0  0  0  0  0  0  0  0999 V2000
    9.2420    9.5270    1.0220 C   0  0  0  0  0  0  0  0  0  0  0  0
    9.9100    9.3930    2.2510 C   0  0  0  0  0  3  0  0  0  0  0  0
   10.4230    8.1670    2.6920 C   0  0  0  0  0  3  0  0  0  0  0  0
   10.2460    7.0560    1.8590 C   0  0  0  0  0  0  0  0  0  0  0  0
    9.5820    7.1460    0.6390 C   0  0  0  0  0  0  0  0  0  0  0  0
    9.0790    8.3850    0.2110 C   0  0  0  0  0  3  0  0  0  0  0  0
    9.5270    5.9230    0.0220 N   0  0  0  0  0  0  0  0  0  0  0  0
   10.1040    5.0670    0.8440 C   0  0  0  0  0  0  0  0  0  0  0  0
   10.6220    5.7290    1.9470 N   0  0  0  0  0  0  0  0  0  0  0  0
   10.1950    3.6310    0.5820 C   0  0  0  0  0  0  0  0  0  0  0  0
    9.4320    2.7090    1.3060 C   0  0  0  0  0  3  0  0  0  0  0  0
    9.5280    1.3420    1.0290 C   0  0  0  0  0  3  0  0  0  0  0  0
   10.3790    0.8780    0.0210 C   0  0  0  0  0  0  0  0  0  0  0  0
   11.1120    1.7960   -0.7300 C   0  0  0  0  0  3  0  0  0  0  0  0
   11.0170    3.1650   -0.4500 C   0  0  0  0  0  3  0  0  0  0  0  0
   10.3640   -0.4780   -0.1570 O   0  0  0  0  0  0  0  0  0  0  0  0
   10.4190   -0.9810   -1.4940 C   0  0  0  0  0  2  0  0  0  0  0  0
   11.6550   -1.7960   -1.7980 C   0  0  0  0  0  0  0  0  0  0  0  0
   12.7300   -1.1910   -2.4580 C   0  0  0  0  0  3  0  0  0  0  0  0
   13.8700   -1.9400   -2.7080 C   0  0  0  0  0  3  0  0  0  0  0  0
   14.0140   -3.2310   -2.3470 N   0  0  0  0  0  0  0  0  0  0  0  0
   12.9670   -3.7990   -1.7110 C   0  0  0  0  0  3  0  0  0  0  0  0
   11.7890   -3.1320   -1.4120 C   0  0  0  0  0  3  0  0  0  0  0  0
   11.4540    5.1420    2.9790 C   0  0  0  0  0  3  0  0  0  0  0  0
   10.7310    4.1690    3.9220 C   0  0  0  0  0  2  0  0  0  0  0  0
   11.8520    3.2790    4.4360 C   0  0  0  0  0  2  0  0  0  0  0  0
   12.7140    3.0550    3.2050 C   0  0  0  0  0  2  0  0  0  0  0  0
   12.6930    4.3880    2.4600 C   0  0  0  0  0  2  0  0  0  0  0  0
    7.4940   10.9140    0.1950 O   0  0  0  0  0  0  0  0  0  0  0  0
    8.7060   10.8740    0.5790 C   0  0  0  0  0  0  0  0  0  0  0  0
    9.5030   11.8630    0.6250 O   0  0  0  0  0  1  0  0  0  0  0  0
  1  2  1  0  0  0  0
  2  3  2  0  0  0  0
  4  9  1  0  0  0  0
  4  3  1  0  0  0  0
  5  4  2  0  0  0  0
  6  5  1  0  0  0  0
  6  1  2  0  0  0  0
  7  5  1  0  0  0  0
  7  8  2  0  0  0  0
  8  9  1  0  0  0  0
  9 24  1  0  0  0  0
 10  8  1  0  0  0  0
 10 11  1  0  0  0  0
 12 11  2  0  0  0  0
 13 12  1  0  0  0  0
 14 15  1  0  0  0  0
 14 13  2  0  0  0  0
 15 10  2  0  0  0  0
 16 13  1  0  0  0  0
 17 16  1  0  0  0  0
 18 17  1  0  0  0  0
 18 23  1  0  0  0  0
 19 18  2  0  0  0  0
 20 19  1  0  0  0  0
 20 21  2  0  0  0  0
 21 22  1  0  0  0  0
 22 23  2  0  0  0  0
 24 25  1  0  0  0  0
 25 26  1  0  0  0  0
 27 26  1  0  0  0  0
 28 24  1  0  0  0  0
 28 27  1  0  0  0  0
 29 30  2  0  0  0  0
 30 31  1  0  0  0  0
 30  1  1  0  0  0  0
M  END
>  <minimizedAffinity>
-6.79891014

$$$$

 OpenBabel09122223063D

 31 35  0  0  0  0  0  0  0  0999 V2000
    8.9320   -2.1760    2.2530 C   0  0  0  0  0  0  0  0  0  0  0  0
    9.3190   -2.4160    0.9240 C   0  0  0  0  0  3  0  0  0  0  0  0
    9.7580   -1.3920    0.0770 C   0  0  0  0  0  3  0  0  0  0  0  0
    9.8010   -0.0940    0.6020 C   0  0  0  0  0  0  0  0  0  0  0  0
    9.4180    0.1860    1.9100 C   0  0  0  0  0  0  0  0  0  0  0  0
    8.9840   -0.8560    2.7460 C   0  0  0  0  0  3  0  0  0  0  0  0
    9.5350    1.5260    2.1770 N   0  0  0  0  0  0  0  0  0  0  0  0
    9.9430    2.0920    1.0570 C   0  0  0  0  0  0  0  0  0  0  0  0
   10.1880    1.1290    0.0890 N   0  0  0  0  0  0  0  0  0  0  0  0
   10.1320    3.5340    0.9030 C   0  0  0  0  0  0  0  0  0  0  0  0
   11.1500    4.2120    1.5810 C   0  0  0  0  0  3  0  0  0  0  0  0
   11.3170    5.5890    1.4080 C   0  0  0  0  0  3  0  0  0  0  0  0
   10.4760    6.3060    0.5510 C   0  0  0  0  0  0  0  0  0  0  0  0
    9.4850    5.6290   -0.1570 C   0  0  0  0  0  3  0  0  0  0  0  0
    9.3160    4.2500    0.0180 C   0  0  0  0  0  3  0  0  0  0  0  0
   10.7600    7.6410    0.4610 O   0  0  0  0  0  0  0  0  0  0  0  0
   11.6050    8.0780   -0.6070 C   0  0  0  0  0  2  0  0  0  0  0  0
   12.8980    8.7160   -0.1500 C   0  0  0  0  0  0  0  0  0  0  0  0
   14.0290    7.9150    0.0380 C   0  0  0  0  0  3  0  0  0  0  0  0
   15.2160    8.5140    0.4310 C   0  0  0  0  0  3  0  0  0  0  0  0
   15.3550    9.8380    0.6420 N   0  0  0  0  0  0  0  0  0  0  0  0
   14.2530   10.5970    0.4560 C   0  0  0  0  0  3  0  0  0  0  0  0
   13.0250   10.0920    0.0600 C   0  0  0  0  0  3  0  0  0  0  0  0
   10.7910    1.3620   -1.2080 C   0  0  0  0  0  3  0  0  0  0  0  0
   12.3240    1.4530   -1.2080 C   0  0  0  0  0  2  0  0  0  0  0  0
   12.6990    1.0730   -2.6310 C   0  0  0  0  0  2  0  0  0  0  0  0
   11.7450   -0.0650   -2.9540 C   0  0  0  0  0  2  0  0  0  0  0  0
   10.4280    0.3230   -2.2860 C   0  0  0  0  0  2  0  0  0  0  0  0
    8.8740   -3.3120    4.3430 O   0  0  0  0  0  1  0  0  0  0  0  0
    8.4670   -3.3150    3.1380 C   0  0  0  0  0  0  0  0  0  0  0  0
    7.7040   -4.1860    2.6160 O   0  0  0  0  0  0  0  0  0  0  0  0
  1  6  1  0  0  0  0
  1 30  1  0  0  0  0
  2  1  2  0  0  0  0
  3  4  2  0  0  0  0
  3  2  1  0  0  0  0
  4  5  1  0  0  0  0
  5  7  1  0  0  0  0
  5  6  2  0  0  0  0
  8  7  2  0  0  0  0
  9  4  1  0  0  0  0
  9  8  1  0  0  0  0
 10  8  1  0  0  0  0
 10 11  1  0  0  0  0
 12 11  2  0  0  0  0
 13 12  1  0  0  0  0
 14 15  1  0  0  0  0
 14 13  2  0  0  0  0
 15 10  2  0  0  0  0
 16 13  1  0  0  0  0
 17 18  1  0  0  0  0
 17 16  1  0  0  0  0
 18 19  2  0  0  0  0
 18 23  1  0  0  0  0
 19 20  1  0  0  0  0
 20 21  2  0  0  0  0
 22 21  1  0  0  0  0
 23 22  2  0  0  0  0
 24  9  1  0  0  0  0
 25 24  1  0  0  0  0
 26 25  1  0  0  0  0
 27 26  1  0  0  0  0
 27 28  1  0  0  0  0
 28 24  1  0  0  0  0
 30 29  1  0  0  0  0
 31 30  2  0  0  0  0
M  END
>  <minimizedAffinity>
-6.59152603

$$$$

 OpenBabel09122223063D

 31 35  0  0  0  0  0  0  0  0999 V2000
   11.0260    8.0960    1.1730 C   0  0  0  0  0  0  0  0  0  0  0  0
   11.2300    7.5960    2.4710 C   0  0  0  0  0  3  0  0  0  0  0  0
   11.3440    6.2260    2.7340 C   0  0  0  0  0  3  0  0  0  0  0  0
   11.2460    5.3490    1.6460 C   0  0  0  0  0  0  0  0  0  0  0  0
   11.0350    5.8050    0.3480 C   0  0  0  0  0  0  0  0  0  0  0  0
   10.9280    7.1830    0.1040 C   0  0  0  0  0  3  0  0  0  0  0  0
   10.9610    4.7550   -0.5310 N   0  0  0  0  0  0  0  0  0  0  0  0
   11.0800    3.6580    0.1920 C   0  0  0  0  0  0  0  0  0  0  0  0
   11.3290    3.9760    1.5190 N   0  0  0  0  0  0  0  0  0  0  0  0
   10.9900    2.3080   -0.3660 C   0  0  0  0  0  0  0  0  0  0  0  0
   11.8070    1.9030   -1.4270 C   0  0  0  0  0  3  0  0  0  0  0  0
   11.7090    0.6040   -1.9340 C   0  0  0  0  0  3  0  0  0  0  0  0
   10.8020   -0.3080   -1.3880 C   0  0  0  0  0  0  0  0  0  0  0  0
   10.0130    0.0790   -0.3050 C   0  0  0  0  0  3  0  0  0  0  0  0
   10.1100    1.3800    0.2020 C   0  0  0  0  0  3  0  0  0  0  0  0
   10.8220   -1.5480   -1.9670 O   0  0  0  0  0  0  0  0  0  0  0  0
   12.0900   -2.1030   -2.3240 C   0  0  0  0  0  2  0  0  0  0  0  0
   12.8670   -2.6720   -1.1580 C   0  0  0  0  0  0  0  0  0  0  0  0
   14.2650   -2.6840   -1.2060 C   0  0  0  0  0  3  0  0  0  0  0  0
   14.9680   -3.1840   -0.1200 C   0  0  0  0  0  3  0  0  0  0  0  0
   14.3840   -3.6620    0.9970 N   0  0  0  0  0  0  0  0  0  0  0  0
   13.0340   -3.6430    1.0260 C   0  0  0  0  0  3  0  0  0  0  0  0
   12.2440   -3.1590   -0.0060 C   0  0  0  0  0  3  0  0  0  0  0  0
   11.6660    3.0370    2.5700 C   0  0  0  0  0  3  0  0  0  0  0  0
   12.9340    3.3790    3.3670 C   0  0  0  0  0  2  0  0  0  0  0  0
   12.7140    2.6750    4.6970 C   0  0  0  0  0  2  0  0  0  0  0  0
   11.2390    2.9090    4.9780 C   0  0  0  0  0  2  0  0  0  0  0  0
   10.5570    2.8090    3.6140 C   0  0  0  0  0  2  0  0  0  0  0  0
   10.3840    9.9550   -0.1670 O   0  0  0  0  0  0  0  0  0  0  0  0
   10.9120    9.5880    0.9310 C   0  0  0  0  0  0  0  0  0  0  0  0
   11.3470   10.3620    1.8400 O   0  0  0  0  0  1  0  0  0  0  0  0
  1  2  1  0  0  0  0
  2  3  2  0  0  0  0
  4  3  1  0  0  0  0
  5  4  2  0  0  0  0
  6  5  1  0  0  0  0
  6  1  2  0  0  0  0
  7  8  2  0  0  0  0
  7  5  1  0  0  0  0
  8  9  1  0  0  0  0
  9  4  1  0  0  0  0
  9 24  1  0  0  0  0
 10  8  1  0  0  0  0
 10 15  1  0  0  0  0
 11 10  2  0  0  0  0
 12 11  1  0  0  0  0
 12 13  2  0  0  0  0
 13 14  1  0  0  0  0
 14 15  2  0  0  0  0
 16 13  1  0  0  0  0
 17 16  1  0  0  0  0
 17 18  1  0  0  0  0
 18 23  1  0  0  0  0
 19 18  2  0  0  0  0
 19 20  1  0  0  0  0
 20 21  2  0  0  0  0
 21 22  1  0  0  0  0
 23 22  2  0  0  0  0
 24 25  1  0  0  0  0
 24 28  1  0  0  0  0
 25 26  1  0  0  0  0
 26 27  1  0  0  0  0
 28 27  1  0  0  0  0
 29 30  2  0  0  0  0
 30  1  1  0  0  0  0
 30 31  1  0  0  0  0
M  END
>  <minimizedAffinity>
-6.5557003

$$$$

 OpenBabel09122223063D

 31 35  0  0  0  0  0  0  0  0999 V2000
   13.2510    7.9410    0.0450 C   0  0  0  0  0  0  0  0  0  0  0  0
   13.0590    7.6780    1.4120 C   0  0  0  0  0  3  0  0  0  0  0  0
   12.6690    6.4180    1.8820 C   0  0  0  0  0  3  0  0  0  0  0  0
   12.4680    5.4080    0.9330 C   0  0  0  0  0  0  0  0  0  0  0  0
   12.6390    5.6320   -0.4300 C   0  0  0  0  0  0  0  0  0  0  0  0
   13.0360    6.9010   -0.8820 C   0  0  0  0  0  3  0  0  0  0  0  0
   12.3690    4.4960   -1.1480 N   0  0  0  0  0  0  0  0  0  0  0  0
   11.9970    3.5830   -0.2710 C   0  0  0  0  0  0  0  0  0  0  0  0
   12.1120    4.0760    1.0200 N   0  0  0  0  0  0  0  0  0  0  0  0
   11.5590    2.2370   -0.6420 C   0  0  0  0  0  0  0  0  0  0  0  0
   12.2740    1.4680   -1.5670 C   0  0  0  0  0  3  0  0  0  0  0  0
   11.8410    0.1800   -1.8950 C   0  0  0  0  0  3  0  0  0  0  0  0
   10.6970   -0.3610   -1.3010 C   0  0  0  0  0  0  0  0  0  0  0  0
   10.0040    0.3870   -0.3500 C   0  0  0  0  0  3  0  0  0  0  0  0
   10.4350    1.6780   -0.0230 C   0  0  0  0  0  3  0  0  0  0  0  0
   10.3970   -1.6350   -1.6990 O   0  0  0  0  0  0  0  0  0  0  0  0
   10.8660   -2.7180   -0.8940 C   0  0  0  0  0  2  0  0  0  0  0  0
    9.8340   -3.2690    0.0640 C   0  0  0  0  0  0  0  0  0  0  0  0
    9.0460   -4.3560   -0.3280 C   0  0  0  0  0  3  0  0  0  0  0  0
    8.1210   -4.8700    0.5680 C   0  0  0  0  0  3  0  0  0  0  0  0
    7.9320   -4.3870    1.8130 N   0  0  0  0  0  0  0  0  0  0  0  0
    8.7010   -3.3370    2.1750 C   0  0  0  0  0  3  0  0  0  0  0  0
    9.6550   -2.7580    1.3520 C   0  0  0  0  0  3  0  0  0  0  0  0
   11.9400    3.3140    2.2400 C   0  0  0  0  0  3  0  0  0  0  0  0
   13.1610    3.2910    3.1720 C   0  0  0  0  0  2  0  0  0  0  0  0
   12.5550    3.0120    4.5390 C   0  0  0  0  0  2  0  0  0  0  0  0
   11.2870    3.8500    4.5380 C   0  0  0  0  0  2  0  0  0  0  0  0
   10.7480    3.7490    3.1130 C   0  0  0  0  0  2  0  0  0  0  0  0
   13.5590   10.2720    0.4110 O   0  0  0  0  0  1  0  0  0  0  0  0
   13.6790    9.3180   -0.4220 C   0  0  0  0  0  0  0  0  0  0  0  0
   14.1270    9.4200   -1.6070 O   0  0  0  0  0  0  0  0  0  0  0  0
  1  2  1  0  0  0  0
  2  3  2  0  0  0  0
  4  9  1  0  0  0  0
  4  3  1  0  0  0  0
  5  4  2  0  0  0  0
  6  5  1  0  0  0  0
  6  1  2  0  0  0  0
  7  5  1  0  0  0  0
  7  8  2  0  0  0  0
  8  9  1  0  0  0  0
  9 24  1  0  0  0  0
 10  8  1  0  0  0  0
 10 15  1  0  0  0  0
 11 10  2  0  0  0  0
 12 11  1  0  0  0  0
 12 13  2  0  0  0  0
 13 14  1  0  0  0  0
 14 15  2  0  0  0  0
 16 13  1  0  0  0  0
 16 17  1  0  0  0  0
 17 18  1  0  0  0  0
 18 23  1  0  0  0  0
 19 18  2  0  0  0  0
 19 20  1  0  0  0  0
 20 21  2  0  0  0  0
 21 22  1  0  0  0  0
 23 22  2  0  0  0  0
 24 28  1  0  0  0  0
 24 25  1  0  0  0  0
 25 26  1  0  0  0  0
 27 26  1  0  0  0  0
 28 27  1  0  0  0  0
 30  1  1  0  0  0  0
 30 29  1  0  0  0  0
 31 30  2  0  0  0  0
M  END
>  <minimizedAffinity>
-6.40594578

$$$$

 OpenBabel09122223063D

 31 35  0  0  0  0  0  0  0  0999 V2000
    9.5920    0.5190    2.3280 C   0  0  0  0  0  0  0  0  0  0  0  0
   10.1290    1.0910    3.4940 C   0  0  0  0  0  3  0  0  0  0  0  0
   10.5460    2.4260    3.5480 C   0  0  0  0  0  3  0  0  0  0  0  0
   10.4130    3.1910    2.3830 C   0  0  0  0  0  0  0  0  0  0  0  0
    9.8940    2.6590    1.2060 C   0  0  0  0  0  0  0  0  0  0  0  0
    9.4760    1.3190    1.1730 C   0  0  0  0  0  3  0  0  0  0  0  0
    9.8820    3.6010    0.2090 N   0  0  0  0  0  0  0  0  0  0  0  0
   10.4160    4.6920    0.7240 C   0  0  0  0  0  0  0  0  0  0  0  0
   10.6880    4.5090    2.0720 N   0  0  0  0  0  0  0  0  0  0  0  0
   10.6440    5.9180   -0.0410 C   0  0  0  0  0  0  0  0  0  0  0  0
   11.9230    6.2730   -0.4840 C   0  0  0  0  0  3  0  0  0  0  0  0
   12.1120    7.4430   -1.2230 C   0  0  0  0  0  3  0  0  0  0  0  0
   11.0310    8.2720   -1.5370 C   0  0  0  0  0  0  0  0  0  0  0  0
    9.7490    7.9030   -1.1310 C   0  0  0  0  0  3  0  0  0  0  0  0
    9.5590    6.7310   -0.3880 C   0  0  0  0  0  3  0  0  0  0  0  0
   11.3540    9.3740   -2.2790 O   0  0  0  0  0  0  0  0  0  0  0  0
   11.1280    9.3250   -3.6890 C   0  0  0  0  0  2  0  0  0  0  0  0
    9.7950    9.8940   -4.1220 C   0  0  0  0  0  0  0  0  0  0  0  0
    9.4580   11.2020   -3.7610 C   0  0  0  0  0  3  0  0  0  0  0  0
    8.2450   11.7230   -4.1850 C   0  0  0  0  0  3  0  0  0  0  0  0
    7.3580   11.0420   -4.9390 N   0  0  0  0  0  0  0  0  0  0  0  0
    7.7000    9.7810   -5.2790 C   0  0  0  0  0  3  0  0  0  0  0  0
    8.8900    9.1750   -4.9070 C   0  0  0  0  0  3  0  0  0  0  0  0
   11.1320    5.5320    2.9960 C   0  0  0  0  0  3  0  0  0  0  0  0
   12.6060    5.9440    2.8540 C   0  0  0  0  0  2  0  0  0  0  0  0
   12.6340    7.3520    3.4280 C   0  0  0  0  0  2  0  0  0  0  0  0
   11.3470    7.9700    2.9070 C   0  0  0  0  0  2  0  0  0  0  0  0
   10.3200    6.8400    2.9540 C   0  0  0  0  0  2  0  0  0  0  0  0
    8.9750   -1.4680    1.1750 O   0  0  0  0  0  0  0  0  0  0  0  0
    9.1470   -0.9300    2.3140 C   0  0  0  0  0  0  0  0  0  0  0  0
    8.9820   -1.5010    3.4370 O   0  0  0  0  0  1  0  0  0  0  0  0
  1  2  1  0  0  0  0
  2  3  2  0  0  0  0
  4  3  1  0  0  0  0
  5  4  2  0  0  0  0
  6  5  1  0  0  0  0
  6  1  2  0  0  0  0
  7  8  2  0  0  0  0
  7  5  1  0  0  0  0
  8  9  1  0  0  0  0
  9  4  1  0  0  0  0
  9 24  1  0  0  0  0
 10  8  1  0  0  0  0
 11 10  2  0  0  0  0
 12 11  1  0  0  0  0
 13 12  2  0  0  0  0
 13 14  1  0  0  0  0
 14 15  2  0  0  0  0
 15 10  1  0  0  0  0
 16 13  1  0  0  0  0
 17 16  1  0  0  0  0
 18 19  1  0  0  0  0
 18 17  1  0  0  0  0
 20 19  2  0  0  0  0
 21 20  1  0  0  0  0
 22 21  2  0  0  0  0
 22 23  1  0  0  0  0
 23 18  2  0  0  0  0
 25 24  1  0  0  0  0
 25 26  1  0  0  0  0
 27 28  1  0  0  0  0
 27 26  1  0  0  0  0
 28 24  1  0  0  0  0
 29 30  2  0  0  0  0
 30  1  1  0  0  0  0
 30 31  1  0  0  0  0
M  END
>  <minimizedAffinity>
-6.37805939

$$$$

 OpenBabel09122223063D

 31 35  0  0  0  0  0  0  0  0999 V2000
   14.1910    8.4570   -2.8680 C   0  0  0  0  0  0  0  0  0  0  0  0
   13.2020    9.3570   -2.4340 C   0  0  0  0  0  3  0  0  0  0  0  0
   12.2160    8.9930   -1.5100 C   0  0  0  0  0  3  0  0  0  0  0  0
   12.2400    7.6810   -1.0220 C   0  0  0  0  0  0  0  0  0  0  0  0
   13.1970    6.7580   -1.4340 C   0  0  0  0  0  0  0  0  0  0  0  0
   14.1820    7.1430   -2.3580 C   0  0  0  0  0  3  0  0  0  0  0  0
   12.9980    5.5450   -0.8260 N   0  0  0  0  0  0  0  0  0  0  0  0
   11.9190    5.6780   -0.0780 C   0  0  0  0  0  0  0  0  0  0  0  0
   11.4660    6.9890   -0.1110 N   0  0  0  0  0  0  0  0  0  0  0  0
   11.3300    4.5830    0.6930 C   0  0  0  0  0  0  0  0  0  0  0  0
   10.3680    3.7350    0.1340 C   0  0  0  0  0  3  0  0  0  0  0  0
    9.8290    2.6890    0.8870 C   0  0  0  0  0  3  0  0  0  0  0  0
   10.2470    2.4680    2.2030 C   0  0  0  0  0  0  0  0  0  0  0  0
   11.2350    3.2860    2.7510 C   0  0  0  0  0  3  0  0  0  0  0  0
   11.7730    4.3360    1.9970 C   0  0  0  0  0  3  0  0  0  0  0  0
    9.6520    1.4010    2.8190 O   0  0  0  0  0  0  0  0  0  0  0  0
    9.1210    0.3610    1.9960 C   0  0  0  0  0  2  0  0  0  0  0  0
    9.1310   -1.0060    2.6430 C   0  0  0  0  0  0  0  0  0  0  0  0
    9.5150   -1.1270    3.9820 C   0  0  0  0  0  3  0  0  0  0  0  0
    9.4960   -2.3810    4.5740 C   0  0  0  0  0  3  0  0  0  0  0  0
    9.1210   -3.5070    3.9340 N   0  0  0  0  0  0  0  0  0  0  0  0
    8.7540   -3.3720    2.6410 C   0  0  0  0  0  3  0  0  0  0  0  0
    8.7360   -2.1620    1.9650 C   0  0  0  0  0  3  0  0  0  0  0  0
   10.4020    7.5410    0.7040 C   0  0  0  0  0  3  0  0  0  0  0  0
   10.8270    8.6750    1.6490 C   0  0  0  0  0  2  0  0  0  0  0  0
    9.5360    9.4450    1.8780 C   0  0  0  0  0  2  0  0  0  0  0  0
    8.8840    9.4520    0.5050 C   0  0  0  0  0  2  0  0  0  0  0  0
    9.1940    8.0780   -0.0860 C   0  0  0  0  0  2  0  0  0  0  0  0
   15.6820   10.0830   -3.7600 O   0  0  0  0  0  1  0  0  0  0  0  0
   15.2450    8.8930   -3.8660 C   0  0  0  0  0  0  0  0  0  0  0  0
   15.6160    8.0410   -4.7330 O   0  0  0  0  0  0  0  0  0  0  0  0
  1  2  2  0  0  0  0
  1  6  1  0  0  0  0
  2  3  1  0  0  0  0
  3  4  2  0  0  0  0
  4  9  1  0  0  0  0
  5  4  1  0  0  0  0
  5  7  1  0  0  0  0
  6  5  2  0  0  0  0
  7  8  2  0  0  0  0
  8 10  1  0  0  0  0
  9  8  1  0  0  0  0
  9 24  1  0  0  0  0
 10 15  1  0  0  0  0
 11 10  2  0  0  0  0
 11 12  1  0  0  0  0
 12 13  2  0  0  0  0
 13 14  1  0  0  0  0
 13 16  1  0  0  0  0
 15 14  2  0  0  0  0
 17 18  1  0  0  0  0
 17 16  1  0  0  0  0
 18 19  1  0  0  0  0
 19 20  2  0  0  0  0
 21 20  1  0  0  0  0
 22 21  2  0  0  0  0
 23 22  1  0  0  0  0
 23 18  2  0  0  0  0
 24 25  1  0  0  0  0
 25 26  1  0  0  0  0
 27 26  1  0  0  0  0
 28 27  1  0  0  0  0
 28 24  1  0  0  0  0
 30 29  1  0  0  0  0
 30  1  1  0  0  0  0
 31 30  2  0  0  0  0
M  END
>  <minimizedAffinity>
-6.12325096

$$$$
