
 OpenBabel09132204463D

 31 35  0  0  0  0  0  0  0  0999 V2000
    9.5920    0.5190    2.3280 C   0  0  0  0  0  0  0  0  0  0  0  0
   10.1290    1.0910    3.4940 C   0  0  0  0  0  3  0  0  0  0  0  0
   10.5460    2.4260    3.5480 C   0  0  0  0  0  3  0  0  0  0  0  0
   10.4130    3.1910    2.3830 C   0  0  0  0  0  0  0  0  0  0  0  0
    9.8940    2.6590    1.2060 C   0  0  0  0  0  0  0  0  0  0  0  0
    9.4760    1.3190    1.1730 C   0  0  0  0  0  3  0  0  0  0  0  0
    9.8820    3.6010    0.2090 N   0  0  0  0  0  0  0  0  0  0  0  0
   10.4160    4.6920    0.7240 C   0  0  0  0  0  0  0  0  0  0  0  0
   10.6880    4.5090    2.0720 N   0  0  0  0  0  0  0  0  0  0  0  0
   10.6440    5.9180   -0.0410 C   0  0  0  0  0  0  0  0  0  0  0  0
   11.9230    6.2730   -0.4840 C   0  0  0  0  0  3  0  0  0  0  0  0
   12.1120    7.4430   -1.2230 C   0  0  0  0  0  3  0  0  0  0  0  0
   11.0310    8.2720   -1.5370 C   0  0  0  0  0  0  0  0  0  0  0  0
    9.7490    7.9030   -1.1310 C   0  0  0  0  0  3  0  0  0  0  0  0
    9.5590    6.7310   -0.3880 C   0  0  0  0  0  3  0  0  0  0  0  0
   11.3540    9.3740   -2.2790 O   0  0  0  0  0  0  0  0  0  0  0  0
   11.1280    9.3250   -3.6890 C   0  0  0  0  0  2  0  0  0  0  0  0
    9.7950    9.8940   -4.1220 C   0  0  0  0  0  0  0  0  0  0  0  0
    9.4580   11.2020   -3.7610 C   0  0  0  0  0  3  0  0  0  0  0  0
    8.2450   11.7230   -4.1850 C   0  0  0  0  0  3  0  0  0  0  0  0
    7.3580   11.0420   -4.9390 N   0  0  0  0  0  0  0  0  0  0  0  0
    7.7000    9.7810   -5.2790 C   0  0  0  0  0  3  0  0  0  0  0  0
    8.8900    9.1750   -4.9070 C   0  0  0  0  0  3  0  0  0  0  0  0
   11.1320    5.5320    2.9960 C   0  0  0  0  0  3  0  0  0  0  0  0
   12.6060    5.9440    2.8540 C   0  0  0  0  0  2  0  0  0  0  0  0
   12.6340    7.3520    3.4280 C   0  0  0  0  0  2  0  0  0  0  0  0
   11.3470    7.9700    2.9070 C   0  0  0  0  0  2  0  0  0  0  0  0
   10.3200    6.8400    2.9540 C   0  0  0  0  0  2  0  0  0  0  0  0
    8.9750   -1.4680    1.1750 O   0  0  0  0  0  0  0  0  0  0  0  0
    9.1470   -0.9300    2.3140 C   0  0  0  0  0  0  0  0  0  0  0  0
    8.9820   -1.5010    3.4370 O   0  0  0  0  0  1  0  0  0  0  0  0
  1  2  1  0  0  0  0
  2  3  2  0  0  0  0
  4  3  1  0  0  0  0
  5  4  2  0  0  0  0
  6  5  1  0  0  0  0
  6  1  2  0  0  0  0
  7  8  2  0  0  0  0
  7  5  1  0  0  0  0
  8  9  1  0  0  0  0
  9  4  1  0  0  0  0
  9 24  1  0  0  0  0
 10  8  1  0  0  0  0
 11 10  2  0  0  0  0
 12 11  1  0  0  0  0
 13 12  2  0  0  0  0
 13 14  1  0  0  0  0
 14 15  2  0  0  0  0
 15 10  1  0  0  0  0
 16 13  1  0  0  0  0
 17 16  1  0  0  0  0
 18 19  1  0  0  0  0
 18 17  1  0  0  0  0
 20 19  2  0  0  0  0
 21 20  1  0  0  0  0
 22 21  2  0  0  0  0
 22 23  1  0  0  0  0
 23 18  2  0  0  0  0
 25 24  1  0  0  0  0
 25 26  1  0  0  0  0
 27 28  1  0  0  0  0
 27 26  1  0  0  0  0
 28 24  1  0  0  0  0
 29 30  2  0  0  0  0
 30  1  1  0  0  0  0
 30 31  1  0  0  0  0
M  END
>  <minimizedAffinity>
-6.37805939

$$$$
