
 OpenBabel09132204463D

 31 35  0  0  0  0  0  0  0  0999 V2000
    9.2420    9.5270    1.0220 C   0  0  0  0  0  0  0  0  0  0  0  0
    9.9100    9.3930    2.2510 C   0  0  0  0  0  3  0  0  0  0  0  0
   10.4230    8.1670    2.6920 C   0  0  0  0  0  3  0  0  0  0  0  0
   10.2460    7.0560    1.8590 C   0  0  0  0  0  0  0  0  0  0  0  0
    9.5820    7.1460    0.6390 C   0  0  0  0  0  0  0  0  0  0  0  0
    9.0790    8.3850    0.2110 C   0  0  0  0  0  3  0  0  0  0  0  0
    9.5270    5.9230    0.0220 N   0  0  0  0  0  0  0  0  0  0  0  0
   10.1040    5.0670    0.8440 C   0  0  0  0  0  0  0  0  0  0  0  0
   10.6220    5.7290    1.9470 N   0  0  0  0  0  0  0  0  0  0  0  0
   10.1950    3.6310    0.5820 C   0  0  0  0  0  0  0  0  0  0  0  0
    9.4320    2.7090    1.3060 C   0  0  0  0  0  3  0  0  0  0  0  0
    9.5280    1.3420    1.0290 C   0  0  0  0  0  3  0  0  0  0  0  0
   10.3790    0.8780    0.0210 C   0  0  0  0  0  0  0  0  0  0  0  0
   11.1120    1.7960   -0.7300 C   0  0  0  0  0  3  0  0  0  0  0  0
   11.0170    3.1650   -0.4500 C   0  0  0  0  0  3  0  0  0  0  0  0
   10.3640   -0.4780   -0.1570 O   0  0  0  0  0  0  0  0  0  0  0  0
   10.4190   -0.9810   -1.4940 C   0  0  0  0  0  2  0  0  0  0  0  0
   11.6550   -1.7960   -1.7980 C   0  0  0  0  0  0  0  0  0  0  0  0
   12.7300   -1.1910   -2.4580 C   0  0  0  0  0  3  0  0  0  0  0  0
   13.8700   -1.9400   -2.7080 C   0  0  0  0  0  3  0  0  0  0  0  0
   14.0140   -3.2310   -2.3470 N   0  0  0  0  0  0  0  0  0  0  0  0
   12.9670   -3.7990   -1.7110 C   0  0  0  0  0  3  0  0  0  0  0  0
   11.7890   -3.1320   -1.4120 C   0  0  0  0  0  3  0  0  0  0  0  0
   11.4540    5.1420    2.9790 C   0  0  0  0  0  3  0  0  0  0  0  0
   10.7310    4.1690    3.9220 C   0  0  0  0  0  2  0  0  0  0  0  0
   11.8520    3.2790    4.4360 C   0  0  0  0  0  2  0  0  0  0  0  0
   12.7140    3.0550    3.2050 C   0  0  0  0  0  2  0  0  0  0  0  0
   12.6930    4.3880    2.4600 C   0  0  0  0  0  2  0  0  0  0  0  0
    7.4940   10.9140    0.1950 O   0  0  0  0  0  0  0  0  0  0  0  0
    8.7060   10.8740    0.5790 C   0  0  0  0  0  0  0  0  0  0  0  0
    9.5030   11.8630    0.6250 O   0  0  0  0  0  1  0  0  0  0  0  0
  1  2  1  0  0  0  0
  2  3  2  0  0  0  0
  4  9  1  0  0  0  0
  4  3  1  0  0  0  0
  5  4  2  0  0  0  0
  6  5  1  0  0  0  0
  6  1  2  0  0  0  0
  7  5  1  0  0  0  0
  7  8  2  0  0  0  0
  8  9  1  0  0  0  0
  9 24  1  0  0  0  0
 10  8  1  0  0  0  0
 10 11  1  0  0  0  0
 12 11  2  0  0  0  0
 13 12  1  0  0  0  0
 14 15  1  0  0  0  0
 14 13  2  0  0  0  0
 15 10  2  0  0  0  0
 16 13  1  0  0  0  0
 17 16  1  0  0  0  0
 18 17  1  0  0  0  0
 18 23  1  0  0  0  0
 19 18  2  0  0  0  0
 20 19  1  0  0  0  0
 20 21  2  0  0  0  0
 21 22  1  0  0  0  0
 22 23  2  0  0  0  0
 24 25  1  0  0  0  0
 25 26  1  0  0  0  0
 27 26  1  0  0  0  0
 28 24  1  0  0  0  0
 28 27  1  0  0  0  0
 29 30  2  0  0  0  0
 30 31  1  0  0  0  0
 30  1  1  0  0  0  0
M  END
>  <minimizedAffinity>
-6.79891014

$$$$
