
 OpenBabel09132204463D

 31 35  0  0  0  0  0  0  0  0999 V2000
    9.7180    7.7700    1.9670 C   0  0  0  0  0  0  0  0  0  0  0  0
   10.4720    7.3360    3.0700 C   0  0  0  0  0  3  0  0  0  0  0  0
   10.9740    6.0330    3.1650 C   0  0  0  0  0  3  0  0  0  0  0  0
   10.6980    5.1550    2.1100 C   0  0  0  0  0  0  0  0  0  0  0  0
    9.9470    5.5440    1.0050 C   0  0  0  0  0  0  0  0  0  0  0  0
    9.4550    6.8570    0.9250 C   0  0  0  0  0  3  0  0  0  0  0  0
    9.8030    4.5050    0.1220 N   0  0  0  0  0  0  0  0  0  0  0  0
   10.4110    3.4690    0.6680 C   0  0  0  0  0  0  0  0  0  0  0  0
   11.0340    3.8410    1.8500 N   0  0  0  0  0  0  0  0  0  0  0  0
   10.4330    2.1350    0.0670 C   0  0  0  0  0  0  0  0  0  0  0  0
   11.1090    1.8890   -1.1330 C   0  0  0  0  0  3  0  0  0  0  0  0
   11.1240    0.6030   -1.6820 C   0  0  0  0  0  3  0  0  0  0  0  0
   10.4750   -0.4540   -1.0380 C   0  0  0  0  0  0  0  0  0  0  0  0
    9.8340   -0.2220    0.1790 C   0  0  0  0  0  3  0  0  0  0  0  0
    9.8160    1.0670    0.7260 C   0  0  0  0  0  3  0  0  0  0  0  0
   10.5840   -1.6610   -1.6720 O   0  0  0  0  0  0  0  0  0  0  0  0
   10.8070   -2.8240   -0.8720 C   0  0  0  0  0  2  0  0  0  0  0  0
   12.2570   -3.0640   -0.5210 C   0  0  0  0  0  0  0  0  0  0  0  0
   13.2480   -2.7770   -1.4660 C   0  0  0  0  0  3  0  0  0  0  0  0
   14.5770   -2.9760   -1.1240 C   0  0  0  0  0  3  0  0  0  0  0  0
   14.9840   -3.4300    0.0780 N   0  0  0  0  0  0  0  0  0  0  0  0
   14.0150   -3.7020    0.9790 C   0  0  0  0  0  3  0  0  0  0  0  0
   12.6610   -3.5310    0.7330 C   0  0  0  0  0  3  0  0  0  0  0  0
   11.9210    3.0110    2.6420 C   0  0  0  0  0  3  0  0  0  0  0  0
   13.3250    3.5910    2.8700 C   0  0  0  0  0  2  0  0  0  0  0  0
   13.7830    2.9090    4.1490 C   0  0  0  0  0  2  0  0  0  0  0  0
   12.5310    2.9010    5.0100 C   0  0  0  0  0  2  0  0  0  0  0  0
   11.3840    2.6380    4.0360 C   0  0  0  0  0  2  0  0  0  0  0  0
    8.3290    9.5270    2.7700 O   0  0  0  0  0  1  0  0  0  0  0  0
    9.1960    9.1910    1.9010 C   0  0  0  0  0  0  0  0  0  0  0  0
    9.6620    9.9430    0.9890 O   0  0  0  0  0  0  0  0  0  0  0  0
  1  2  1  0  0  0  0
  2  3  2  0  0  0  0
  4  3  1  0  0  0  0
  5  4  2  0  0  0  0
  6  5  1  0  0  0  0
  6  1  2  0  0  0  0
  7  8  2  0  0  0  0
  7  5  1  0  0  0  0
  8  9  1  0  0  0  0
  9  4  1  0  0  0  0
  9 24  1  0  0  0  0
 10  8  1  0  0  0  0
 10 15  1  0  0  0  0
 11 10  2  0  0  0  0
 12 11  1  0  0  0  0
 12 13  2  0  0  0  0
 13 14  1  0  0  0  0
 14 15  2  0  0  0  0
 16 13  1  0  0  0  0
 16 17  1  0  0  0  0
 17 18  1  0  0  0  0
 18 23  1  0  0  0  0
 19 20  1  0  0  0  0
 19 18  2  0  0  0  0
 20 21  2  0  0  0  0
 21 22  1  0  0  0  0
 23 22  2  0  0  0  0
 24 25  1  0  0  0  0
 24 28  1  0  0  0  0
 25 26  1  0  0  0  0
 26 27  1  0  0  0  0
 28 27  1  0  0  0  0
 30  1  1  0  0  0  0
 30 29  1  0  0  0  0
 31 30  2  0  0  0  0
M  END
>  <minimizedAffinity>
-8.14984226

$$$$
