
 OpenBabel09122222393D

 24 27  0  0  0  0  0  0  0  0999 V2000
   10.1480    2.5660    1.1880 C   0  0  0  0  0  0  0  0  0  0  0  0
    9.2900    1.9020    2.0560 C   0  0  0  0  0  3  0  0  0  0  0  0
    9.2800    0.5850    1.6020 C   0  0  0  0  0  0  0  0  0  0  0  0
    8.6830   -0.5730    1.9460 N   0  0  0  0  0  0  0  0  0  0  0  0
    9.1400   -1.4540    1.0550 C   0  0  0  0  0  0  0  0  0  0  0  0
   10.0080   -0.8450    0.1470 N   0  0  0  0  0  0  0  0  0  0  0  0
   10.0810    0.4590    0.5290 C   0  0  0  0  0  0  0  0  0  0  0  0
   10.6300    1.6670    0.2550 N   0  0  0  0  0  0  0  0  0  0  0  0
   11.2740    1.9440   -0.4770 H   0  0  0  0  0  0  0  0  0  0  0  0
    8.7370   -2.8570    1.0470 C   0  0  0  0  0  0  0  0  0  0  0  0
    8.0750   -3.4200    2.1430 C   0  0  0  0  0  3  0  0  0  0  0  0
    7.6820   -4.7610    2.1180 C   0  0  0  0  0  3  0  0  0  0  0  0
    7.9330   -5.5390    0.9890 C   0  0  0  0  0  3  0  0  0  0  0  0
    8.5630   -4.9770   -0.1210 C   0  0  0  0  0  3  0  0  0  0  0  0
    8.9560   -3.6380   -0.0950 C   0  0  0  0  0  3  0  0  0  0  0  0
   10.7140   -1.3870   -1.0030 C   0  0  0  0  0  3  0  0  0  0  0  0
   11.0730   -0.3180   -2.0460 C   0  0  0  0  0  2  0  0  0  0  0  0
   11.6890   -0.9500   -3.2940 C   0  0  0  0  0  2  0  0  0  0  0  0
   12.8840   -1.8350   -2.9500 C   0  0  0  0  0  2  0  0  0  0  0  0
   12.5240   -2.8950   -1.9110 C   0  0  0  0  0  2  0  0  0  0  0  0
   11.9230   -2.2670   -0.6540 C   0  0  0  0  0  2  0  0  0  0  0  0
   11.3300    4.3730    2.0860 O   0  0  0  0  0  1  0  0  0  0  0  0
   10.5430    3.9790    1.1780 C   0  0  0  0  0  0  0  0  0  0  0  0
   10.0330    4.6620    0.2360 O   0  0  0  0  0  0  0  0  0  0  0  0
  1  2  2  0  0  0  0
  3  4  1  0  0  0  0
  3  2  1  0  0  0  0
  5  4  2  0  0  0  0
  6  7  1  0  0  0  0
  6  5  1  0  0  0  0
  7  3  2  0  0  0  0
  8  7  1  0  0  0  0
  8  1  1  0  0  0  0
  9  8  1  0  0  0  0
 10  5  1  0  0  0  0
 10 11  1  0  0  0  0
 12 11  2  0  0  0  0
 13 12  1  0  0  0  0
 14 15  1  0  0  0  0
 14 13  2  0  0  0  0
 15 10  2  0  0  0  0
 16 21  1  0  0  0  0
 16  6  1  0  0  0  0
 17 16  1  0  0  0  0
 18 19  1  0  0  0  0
 18 17  1  0  0  0  0
 19 20  1  0  0  0  0
 20 21  1  0  0  0  0
 23  1  1  0  0  0  0
 23 22  1  0  0  0  0
 24 23  2  0  0  0  0
M  END
>  <minimizedAffinity>
-6.10397482

$$$$
