
 OpenBabel09122222393D

 24 27  0  0  0  0  0  0  0  0999 V2000
   11.9280   -0.0430   -1.9030 C   0  0  0  0  0  0  0  0  0  0  0  0
   12.3380    1.0960   -2.5850 C   0  0  0  0  0  3  0  0  0  0  0  0
   12.0920    2.1440   -1.7020 C   0  0  0  0  0  0  0  0  0  0  0  0
   12.2330    3.4840   -1.6950 N   0  0  0  0  0  0  0  0  0  0  0  0
   11.7860    3.8560   -0.4950 C   0  0  0  0  0  0  0  0  0  0  0  0
   11.3530    2.7520    0.2420 N   0  0  0  0  0  0  0  0  0  0  0  0
   11.5680    1.6710   -0.5560 C   0  0  0  0  0  0  0  0  0  0  0  0
   11.4590    0.3240   -0.6550 N   0  0  0  0  0  0  0  0  0  0  0  0
   11.1070   -0.3560    0.0090 H   0  0  0  0  0  0  0  0  0  0  0  0
   11.7450    5.2480   -0.0580 C   0  0  0  0  0  0  0  0  0  0  0  0
   12.9230    5.9450    0.2290 C   0  0  0  0  0  3  0  0  0  0  0  0
   12.8720    7.2810    0.6340 C   0  0  0  0  0  3  0  0  0  0  0  0
   11.6430    7.9320    0.7350 C   0  0  0  0  0  3  0  0  0  0  0  0
   10.4670    7.2540    0.4190 C   0  0  0  0  0  3  0  0  0  0  0  0
   10.5180    5.9190    0.0150 C   0  0  0  0  0  3  0  0  0  0  0  0
   10.7640    2.6670    1.5690 C   0  0  0  0  0  3  0  0  0  0  0  0
   10.0100    1.3500    1.8090 C   0  0  0  0  0  2  0  0  0  0  0  0
    9.2950    1.3610    3.1600 C   0  0  0  0  0  2  0  0  0  0  0  0
   10.2510    1.6880    4.3040 C   0  0  0  0  0  2  0  0  0  0  0  0
   11.0000    2.9960    4.0610 C   0  0  0  0  0  2  0  0  0  0  0  0
   11.7310    2.9830    2.7190 C   0  0  0  0  0  2  0  0  0  0  0  0
   12.9220   -1.8180   -3.0550 O   0  0  0  0  0  0  0  0  0  0  0  0
   11.9480   -1.4420   -2.3410 C   0  0  0  0  0  0  0  0  0  0  0  0
   10.9580   -2.1330   -1.9470 O   0  0  0  0  0  1  0  0  0  0  0  0
  1  8  1  0  0  0  0
  2  1  2  0  0  0  0
  2  3  1  0  0  0  0
  3  4  1  0  0  0  0
  3  7  2  0  0  0  0
  4  5  2  0  0  0  0
  5 10  1  0  0  0  0
  5  6  1  0  0  0  0
  6 16  1  0  0  0  0
  7  6  1  0  0  0  0
  8  7  1  0  0  0  0
  8  9  1  0  0  0  0
 10 15  2  0  0  0  0
 10 11  1  0  0  0  0
 11 12  2  0  0  0  0
 12 13  1  0  0  0  0
 14 13  2  0  0  0  0
 15 14  1  0  0  0  0
 16 17  1  0  0  0  0
 16 21  1  0  0  0  0
 17 18  1  0  0  0  0
 18 19  1  0  0  0  0
 20 19  1  0  0  0  0
 21 20  1  0  0  0  0
 22 23  2  0  0  0  0
 23 24  1  0  0  0  0
 23  1  1  0  0  0  0
M  END
>  <minimizedAffinity>
-3.83601427

$$$$
