
 OpenBabel09122222393D

 24 27  0  0  0  0  0  0  0  0999 V2000
   10.5540    4.2910    2.6930 C   0  0  0  0  0  0  0  0  0  0  0  0
   10.1080    3.3100    3.5720 C   0  0  0  0  0  3  0  0  0  0  0  0
   10.0040    2.1600    2.7930 C   0  0  0  0  0  0  0  0  0  0  0  0
    9.6380    0.8760    2.9730 N   0  0  0  0  0  0  0  0  0  0  0  0
    9.7840    0.3210    1.7690 C   0  0  0  0  0  0  0  0  0  0  0  0
   10.2270    1.2600    0.8350 N   0  0  0  0  0  0  0  0  0  0  0  0
   10.3640    2.4250    1.5240 C   0  0  0  0  0  0  0  0  0  0  0  0
   10.7100    3.7330    1.4380 N   0  0  0  0  0  0  0  0  0  0  0  0
   11.0260    4.2760    0.6430 H   0  0  0  0  0  0  0  0  0  0  0  0
    9.4820   -1.0810    1.4980 C   0  0  0  0  0  0  0  0  0  0  0  0
   10.3390   -1.8600    0.7130 C   0  0  0  0  0  3  0  0  0  0  0  0
   10.0470   -3.2050    0.4720 C   0  0  0  0  0  3  0  0  0  0  0  0
    8.9060   -3.7810    1.0280 C   0  0  0  0  0  3  0  0  0  0  0  0
    8.0640   -3.0200    1.8380 C   0  0  0  0  0  3  0  0  0  0  0  0
    8.3560   -1.6760    2.0790 C   0  0  0  0  0  3  0  0  0  0  0  0
   10.4930    1.1320   -0.5890 C   0  0  0  0  0  3  0  0  0  0  0  0
   11.9320    1.5090   -0.9680 C   0  0  0  0  0  2  0  0  0  0  0  0
   12.1270    1.4920   -2.4840 C   0  0  0  0  0  2  0  0  0  0  0  0
   11.7080    0.1570   -3.0930 C   0  0  0  0  0  2  0  0  0  0  0  0
   10.2770   -0.2160   -2.7130 C   0  0  0  0  0  2  0  0  0  0  0  0
   10.0820   -0.2170   -1.1970 C   0  0  0  0  0  2  0  0  0  0  0  0
   12.0380    6.0220    3.2080 O   0  0  0  0  0  1  0  0  0  0  0  0
   10.8410    5.7050    2.9530 C   0  0  0  0  0  0  0  0  0  0  0  0
    9.8270    6.4680    2.8940 O   0  0  0  0  0  0  0  0  0  0  0  0
  1 23  1  0  0  0  0
  1  2  2  0  0  0  0
  3  4  1  0  0  0  0
  3  2  1  0  0  0  0
  5  4  2  0  0  0  0
  6  7  1  0  0  0  0
  6  5  1  0  0  0  0
  7  3  2  0  0  0  0
  8  7  1  0  0  0  0
  8  1  1  0  0  0  0
  9  8  1  0  0  0  0
 10  5  1  0  0  0  0
 10 15  1  0  0  0  0
 11 10  2  0  0  0  0
 12 11  1  0  0  0  0
 12 13  2  0  0  0  0
 13 14  1  0  0  0  0
 14 15  2  0  0  0  0
 16  6  1  0  0  0  0
 17 16  1  0  0  0  0
 18 17  1  0  0  0  0
 19 20  1  0  0  0  0
 19 18  1  0  0  0  0
 20 21  1  0  0  0  0
 21 16  1  0  0  0  0
 23 22  1  0  0  0  0
 24 23  2  0  0  0  0
M  END
>  <minimizedAffinity>
-4.39733076

$$$$
