
 OpenBabel09122222393D

 24 27  0  0  0  0  0  0  0  0999 V2000
   11.0120    5.9370    1.7510 C   0  0  0  0  0  0  0  0  0  0  0  0
   11.7340    5.8190    0.5690 C   0  0  0  0  0  3  0  0  0  0  0  0
   11.5600    4.4920    0.1810 C   0  0  0  0  0  0  0  0  0  0  0  0
   11.9650    3.6980   -0.8280 N   0  0  0  0  0  0  0  0  0  0  0  0
   11.4100    2.5160   -0.5590 C   0  0  0  0  0  0  0  0  0  0  0  0
   10.6710    2.5670    0.6250 N   0  0  0  0  0  0  0  0  0  0  0  0
   10.7830    3.8480    1.0710 C   0  0  0  0  0  0  0  0  0  0  0  0
   10.4300    4.7190    2.0470 N   0  0  0  0  0  0  0  0  0  0  0  0
    9.8580    4.5820    2.8730 H   0  0  0  0  0  0  0  0  0  0  0  0
   11.5970    1.3380   -1.4010 C   0  0  0  0  0  0  0  0  0  0  0  0
   10.5160    0.7570   -2.0730 C   0  0  0  0  0  3  0  0  0  0  0  0
   10.7100   -0.3610   -2.8870 C   0  0  0  0  0  3  0  0  0  0  0  0
   11.9890   -0.8930   -3.0480 C   0  0  0  0  0  3  0  0  0  0  0  0
   13.0770   -0.3000   -2.4080 C   0  0  0  0  0  3  0  0  0  0  0  0
   12.8830    0.8170   -1.5940 C   0  0  0  0  0  3  0  0  0  0  0  0
    9.9270    1.5330    1.3270 C   0  0  0  0  0  3  0  0  0  0  0  0
    9.9360    0.1840    0.5950 C   0  0  0  0  0  2  0  0  0  0  0  0
    9.0330   -0.8310    1.2950 C   0  0  0  0  0  2  0  0  0  0  0  0
    9.3890   -0.9810    2.7720 C   0  0  0  0  0  2  0  0  0  0  0  0
    9.3820    0.3620    3.4970 C   0  0  0  0  0  2  0  0  0  0  0  0
   10.2960    1.3750    2.8100 C   0  0  0  0  0  2  0  0  0  0  0  0
   11.8030    7.9170    2.7100 O   0  0  0  0  0  0  0  0  0  0  0  0
   10.8350    7.1100    2.6130 C   0  0  0  0  0  0  0  0  0  0  0  0
    9.7000    7.1810    3.1790 O   0  0  0  0  0  1  0  0  0  0  0  0
  1  8  1  0  0  0  0
  1 23  1  0  0  0  0
  2  1  2  0  0  0  0
  3  2  1  0  0  0  0
  3  7  2  0  0  0  0
  4  5  2  0  0  0  0
  4  3  1  0  0  0  0
  5  6  1  0  0  0  0
  6  7  1  0  0  0  0
  6 16  1  0  0  0  0
  7  8  1  0  0  0  0
  8  9  1  0  0  0  0
 10  5  1  0  0  0  0
 11 10  2  0  0  0  0
 12 11  1  0  0  0  0
 13 12  2  0  0  0  0
 13 14  1  0  0  0  0
 14 15  2  0  0  0  0
 15 10  1  0  0  0  0
 16 21  1  0  0  0  0
 17 18  1  0  0  0  0
 17 16  1  0  0  0  0
 18 19  1  0  0  0  0
 19 20  1  0  0  0  0
 21 20  1  0  0  0  0
 23 22  2  0  0  0  0
 23 24  1  0  0  0  0
M  END
>  <minimizedAffinity>
-4.94874907

$$$$
