
 OpenBabel09122222393D

 24 27  0  0  0  0  0  0  0  0999 V2000
    9.0520   -1.8950    2.3980 C   0  0  0  0  0  0  0  0  0  0  0  0
    8.9760   -0.7910    3.2390 C   0  0  0  0  0  3  0  0  0  0  0  0
    9.3830    0.2820    2.4500 C   0  0  0  0  0  0  0  0  0  0  0  0
    9.5560    1.6090    2.6010 N   0  0  0  0  0  0  0  0  0  0  0  0
    9.9750    2.0240    1.4050 C   0  0  0  0  0  0  0  0  0  0  0  0
   10.0770    0.9560    0.5120 N   0  0  0  0  0  0  0  0  0  0  0  0
    9.6850   -0.1440    1.2090 C   0  0  0  0  0  0  0  0  0  0  0  0
    9.4870   -1.4830    1.1520 N   0  0  0  0  0  0  0  0  0  0  0  0
    9.6150   -2.1330    0.3840 H   0  0  0  0  0  0  0  0  0  0  0  0
   10.3010    3.4180    1.1160 C   0  0  0  0  0  0  0  0  0  0  0  0
   11.4380    4.0170    1.6670 C   0  0  0  0  0  3  0  0  0  0  0  0
   11.7480    5.3470    1.3730 C   0  0  0  0  0  3  0  0  0  0  0  0
   10.9310    6.0780    0.5110 C   0  0  0  0  0  3  0  0  0  0  0  0
    9.8140    5.4780   -0.0680 C   0  0  0  0  0  3  0  0  0  0  0  0
    9.5040    4.1500    0.2270 C   0  0  0  0  0  3  0  0  0  0  0  0
   10.5170    0.9150   -0.8740 C   0  0  0  0  0  3  0  0  0  0  0  0
   11.9070    1.5350   -1.0820 C   0  0  0  0  0  2  0  0  0  0  0  0
   12.2680    1.5940   -2.5660 C   0  0  0  0  0  2  0  0  0  0  0  0
   12.1490    0.2260   -3.2330 C   0  0  0  0  0  2  0  0  0  0  0  0
   10.7670   -0.3890   -3.0220 C   0  0  0  0  0  2  0  0  0  0  0  0
   10.4080   -0.4650   -1.5390 C   0  0  0  0  0  2  0  0  0  0  0  0
    8.3050   -4.0100    1.7360 O   0  0  0  0  0  0  0  0  0  0  0  0
    8.7450   -3.3000    2.6850 C   0  0  0  0  0  0  0  0  0  0  0  0
    8.9590   -3.6520    3.8870 O   0  0  0  0  0  1  0  0  0  0  0  0
  1 23  1  0  0  0  0
  1  2  2  0  0  0  0
  3  4  1  0  0  0  0
  3  2  1  0  0  0  0
  5  4  2  0  0  0  0
  6  7  1  0  0  0  0
  6  5  1  0  0  0  0
  7  3  2  0  0  0  0
  8  7  1  0  0  0  0
  8  1  1  0  0  0  0
  9  8  1  0  0  0  0
 10  5  1  0  0  0  0
 10 11  1  0  0  0  0
 12 11  2  0  0  0  0
 13 12  1  0  0  0  0
 14 15  1  0  0  0  0
 14 13  2  0  0  0  0
 15 10  2  0  0  0  0
 16  6  1  0  0  0  0
 17 16  1  0  0  0  0
 18 17  1  0  0  0  0
 19 20  1  0  0  0  0
 19 18  1  0  0  0  0
 20 21  1  0  0  0  0
 21 16  1  0  0  0  0
 22 23  2  0  0  0  0
 23 24  1  0  0  0  0
M  END
>  <minimizedAffinity>
-6.13959122

$$$$
