
 OpenBabel09122222393D

 24 27  0  0  0  0  0  0  0  0999 V2000
   10.3820    3.8500    0.2360 C   0  0  0  0  0  0  0  0  0  0  0  0
   11.4550    3.5970   -0.6110 C   0  0  0  0  0  3  0  0  0  0  0  0
   11.4590    2.2140   -0.7730 C   0  0  0  0  0  0  0  0  0  0  0  0
   12.1960    1.2990   -1.4310 N   0  0  0  0  0  0  0  0  0  0  0  0
   11.6190    0.1350   -1.1310 C   0  0  0  0  0  0  0  0  0  0  0  0
   10.5310    0.3200   -0.2750 N   0  0  0  0  0  0  0  0  0  0  0  0
   10.4520    1.6630   -0.0700 C   0  0  0  0  0  0  0  0  0  0  0  0
    9.7720    2.6520    0.5580 N   0  0  0  0  0  0  0  0  0  0  0  0
    8.9650    2.6070    1.1700 H   0  0  0  0  0  0  0  0  0  0  0  0
   12.1080   -1.1470   -1.6300 C   0  0  0  0  0  0  0  0  0  0  0  0
   12.4170   -1.3200   -2.9830 C   0  0  0  0  0  3  0  0  0  0  0  0
   12.8970   -2.5470   -3.4460 C   0  0  0  0  0  3  0  0  0  0  0  0
   13.0890   -3.6020   -2.5550 C   0  0  0  0  0  3  0  0  0  0  0  0
   12.8150   -3.4280   -1.1990 C   0  0  0  0  0  3  0  0  0  0  0  0
   12.3340   -2.2020   -0.7360 C   0  0  0  0  0  3  0  0  0  0  0  0
    9.6300   -0.6420    0.3390 C   0  0  0  0  0  3  0  0  0  0  0  0
   10.0190   -2.0990    0.0500 C   0  0  0  0  0  2  0  0  0  0  0  0
    8.9710   -3.0690    0.5970 C   0  0  0  0  0  2  0  0  0  0  0  0
    8.7020   -2.8340    2.0810 C   0  0  0  0  0  2  0  0  0  0  0  0
    8.3180   -1.3840    2.3650 C   0  0  0  0  0  2  0  0  0  0  0  0
    9.3700   -0.4110    1.8350 C   0  0  0  0  0  2  0  0  0  0  0  0
    9.0520    5.7640    0.0590 O   0  0  0  0  0  0  0  0  0  0  0  0
    9.8960    5.1320    0.7560 C   0  0  0  0  0  0  0  0  0  0  0  0
   10.3940    5.4700    1.8750 O   0  0  0  0  0  1  0  0  0  0  0  0
  1  8  1  0  0  0  0
  1 23  1  0  0  0  0
  2  1  2  0  0  0  0
  3  2  1  0  0  0  0
  3  7  2  0  0  0  0
  4  5  2  0  0  0  0
  4  3  1  0  0  0  0
  5  6  1  0  0  0  0
  6  7  1  0  0  0  0
  6 16  1  0  0  0  0
  7  8  1  0  0  0  0
  8  9  1  0  0  0  0
 10  5  1  0  0  0  0
 10 15  1  0  0  0  0
 11 10  2  0  0  0  0
 12 11  1  0  0  0  0
 12 13  2  0  0  0  0
 13 14  1  0  0  0  0
 14 15  2  0  0  0  0
 16 21  1  0  0  0  0
 17 16  1  0  0  0  0
 17 18  1  0  0  0  0
 18 19  1  0  0  0  0
 19 20  1  0  0  0  0
 21 20  1  0  0  0  0
 22 23  2  0  0  0  0
 23 24  1  0  0  0  0
M  END
>  <minimizedAffinity>
-3.85355282

$$$$
