
 OpenBabel09132204463D

 29 31  0  0  1  0  0  0  0  0999 V2000
    7.5180   -3.9210    3.2540 N   0  0  0  0  0  0  0  0  0  0  0  0
    7.2070   -3.4660    4.5340 C   0  0  0  0  0  0  0  0  0  0  0  0
    6.2690   -3.8670    5.2200 O   0  0  0  0  0  0  0  0  0  0  0  0
    8.1320   -2.5380    5.2050 C   0  0  0  0  0  0  0  0  0  0  0  0
    7.5710   -1.4960    5.9590 C   0  0  0  0  0  3  0  0  0  0  0  0
    8.4010   -0.5620    6.5800 C   0  0  0  0  0  3  0  0  0  0  0  0
    9.7830   -0.6600    6.4260 C   0  0  0  0  0  0  0  0  0  0  0  0
   10.8080    0.4880    7.1980 Cl  0  0  0  0  0  0  0  0  0  0  0  0
   10.3430   -1.6750    5.6510 C   0  0  0  0  0  3  0  0  0  0  0  0
    9.5160   -2.6140    5.0260 C   0  0  0  0  0  0  0  0  0  0  0  0
   10.2750   -3.8310    4.0730 Cl  0  0  0  0  0  0  0  0  0  0  0  0
    6.5050   -4.7880    2.5630 C   0  0  2  0  0  3  0  0  0  0  0  0
    8.1060   -6.2480    1.5080 O   0  0  0  0  0  1  0  0  0  0  0  0
    7.0120   -5.6320    1.3420 C   0  0  0  0  0  0  0  0  0  0  0  0
    6.2130   -5.7070    0.3590 O   0  0  0  0  0  0  0  0  0  0  0  0
    5.2250   -3.9870    2.2380 C   0  0  0  0  0  2  0  0  0  0  0  0
    4.1110   -4.2530    3.2320 C   0  0  0  0  0  0  0  0  0  0  0  0
    3.3480   -3.2060    3.7640 C   0  0  0  0  0  3  0  0  0  0  0  0
    2.3400   -3.4700    4.6930 C   0  0  0  0  0  3  0  0  0  0  0  0
    2.0890   -4.7800    5.1000 C   0  0  0  0  0  3  0  0  0  0  0  0
    2.8470   -5.8280    4.5790 C   0  0  0  0  0  3  0  0  0  0  0  0
    3.8540   -5.5660    3.6500 C   0  0  0  0  0  3  0  0  0  0  0  0
    8.7760   -3.6830    2.5520 C   0  0  0  0  0  2  0  0  0  0  0  0
    8.8560   -2.3310    1.9110 C   0  0  0  0  0  0  0  0  0  0  0  0
    8.1570   -1.1820    2.2450 C   0  0  0  0  0  3  0  0  0  0  0  0
    8.5000   -0.0720    1.4180 C   0  0  0  0  0  3  0  0  0  0  0  0
    9.4740   -0.4120    0.5160 C   0  0  0  0  0  0  0  0  0  0  0  0
   10.1900    0.7880   -0.7320 Br  0  0  0  0  0  0  0  0  0  0  0  0
    9.9890   -2.0170    0.6590 S   0  0  0  0  0  0  0  0  0  0  0  0
  1  2  1  0  0  0  0
  2  4  1  0  0  0  0
  2  3  2  0  0  0  0
  4  5  1  0  0  0  0
  5  6  2  0  0  0  0
  7  6  1  0  0  0  0
  7  8  1  0  0  0  0
  9  7  2  0  0  0  0
 10  4  2  0  0  0  0
 10  9  1  0  0  0  0
 11 10  1  0  0  0  0
 12 16  1  6  0  0  0
 12  1  1  0  0  0  0
 14 13  1  0  0  0  0
 14 12  1  0  0  0  0
 15 14  2  0  0  0  0
 16 17  1  0  0  0  0
 17 22  2  0  0  0  0
 17 18  1  0  0  0  0
 18 19  2  0  0  0  0
 19 20  1  0  0  0  0
 21 20  2  0  0  0  0
 22 21  1  0  0  0  0
 23  1  1  0  0  0  0
 24 25  2  0  0  0  0
 24 23  1  0  0  0  0
 26 25  1  0  0  0  0
 27 29  1  0  0  0  0
 27 26  2  0  0  0  0
 28 27  1  0  0  0  0
 29 24  1  0  0  0  0
M  END
>  <minimizedAffinity>
-0.584636986

$$$$
