
 OpenBabel09132204463D

 29 31  0  0  1  0  0  0  0  0999 V2000
    8.3730   -2.7810    1.9060 N   0  0  0  0  0  0  0  0  0  0  0  0
    7.7560   -3.9800    2.2560 C   0  0  0  0  0  0  0  0  0  0  0  0
    8.3090   -5.0770    2.2900 O   0  0  0  0  0  0  0  0  0  0  0  0
    6.3770   -3.9480    2.7670 C   0  0  0  0  0  0  0  0  0  0  0  0
    6.1590   -3.3250    4.0060 C   0  0  0  0  0  3  0  0  0  0  0  0
    4.8770   -3.3040    4.5580 C   0  0  0  0  0  3  0  0  0  0  0  0
    3.8270   -3.9260    3.8830 C   0  0  0  0  0  0  0  0  0  0  0  0
    2.2450   -3.8940    4.5610 Cl  0  0  0  0  0  0  0  0  0  0  0  0
    4.0460   -4.5740    2.6680 C   0  0  0  0  0  3  0  0  0  0  0  0
    5.3280   -4.5970    2.1100 C   0  0  0  0  0  0  0  0  0  0  0  0
    5.5270   -5.4290    0.6150 Cl  0  0  0  0  0  0  0  0  0  0  0  0
    9.7440   -2.8600    1.2960 C   0  0  2  0  0  3  0  0  0  0  0  0
   10.8120   -4.6500    0.0870 O   0  0  0  0  0  1  0  0  0  0  0  0
    9.9030   -3.7700    0.0290 C   0  0  0  0  0  0  0  0  0  0  0  0
    9.0260   -3.6090   -0.8740 O   0  0  0  0  0  0  0  0  0  0  0  0
   10.8100   -3.1550    2.3750 C   0  0  0  0  0  2  0  0  0  0  0  0
   10.4220   -2.6050    3.7340 C   0  0  0  0  0  0  0  0  0  0  0  0
    9.7760   -3.4090    4.6830 C   0  0  0  0  0  3  0  0  0  0  0  0
    9.4100   -2.8790    5.9220 C   0  0  0  0  0  3  0  0  0  0  0  0
    9.6820   -1.5430    6.2200 C   0  0  0  0  0  3  0  0  0  0  0  0
   10.3190   -0.7360    5.2780 C   0  0  0  0  0  3  0  0  0  0  0  0
   10.6860   -1.2640    4.0410 C   0  0  0  0  0  3  0  0  0  0  0  0
    7.8290   -1.4460    2.1420 C   0  0  0  0  0  2  0  0  0  0  0  0
    8.6830   -0.3460    1.5880 C   0  0  0  0  0  0  0  0  0  0  0  0
    9.3550   -0.3110    0.3770 C   0  0  0  0  0  3  0  0  0  0  0  0
   10.0650    0.9100    0.1800 C   0  0  0  0  0  3  0  0  0  0  0  0
    9.8710    1.7680    1.2310 C   0  0  0  0  0  0  0  0  0  0  0  0
   10.6350    3.4760    1.3230 Br  0  0  0  0  0  0  0  0  0  0  0  0
    8.8480    1.1450    2.4240 S   0  0  0  0  0  0  0  0  0  0  0  0
  1 23  1  0  0  0  0
  1  2  1  0  0  0  0
  2  3  2  0  0  0  0
  2  4  1  0  0  0  0
  4  5  1  0  0  0  0
  5  6  2  0  0  0  0
  7  6  1  0  0  0  0
  7  8  1  0  0  0  0
  9  7  2  0  0  0  0
 10  9  1  0  0  0  0
 10  4  2  0  0  0  0
 11 10  1  0  0  0  0
 12  1  1  0  0  0  0
 12 16  1  1  0  0  0
 14 13  1  0  0  0  0
 14 12  1  0  0  0  0
 15 14  2  0  0  0  0
 16 17  1  0  0  0  0
 17 22  2  0  0  0  0
 17 18  1  0  0  0  0
 18 19  2  0  0  0  0
 19 20  1  0  0  0  0
 21 20  2  0  0  0  0
 22 21  1  0  0  0  0
 24 23  1  0  0  0  0
 24 29  1  0  0  0  0
 25 24  2  0  0  0  0
 26 25  1  0  0  0  0
 26 27  2  0  0  0  0
 27 28  1  0  0  0  0
 27 29  1  0  0  0  0
M  END
>  <minimizedAffinity>
-2.00400066

$$$$
