
 OpenBabel09132204463D

 29 31  0  0  1  0  0  0  0  0999 V2000
    9.3080    7.7550    0.5100 N   0  0  0  0  0  0  0  0  0  0  0  0
    9.8750    8.9270    0.0130 C   0  0  0  0  0  0  0  0  0  0  0  0
   10.6430    9.6610    0.6320 O   0  0  0  0  0  0  0  0  0  0  0  0
    9.6740    9.2700   -1.4040 C   0  0  0  0  0  0  0  0  0  0  0  0
   10.1450    8.3610   -2.3640 C   0  0  0  0  0  3  0  0  0  0  0  0
   10.0200    8.6560   -3.7220 C   0  0  0  0  0  3  0  0  0  0  0  0
    9.4470    9.8660   -4.1130 C   0  0  0  0  0  0  0  0  0  0  0  0
    9.2860   10.2270   -5.7890 Cl  0  0  0  0  0  0  0  0  0  0  0  0
    9.0070   10.7860   -3.1620 C   0  0  0  0  0  3  0  0  0  0  0  0
    9.1300   10.4950   -1.8000 C   0  0  0  0  0  0  0  0  0  0  0  0
    8.5790   11.6840   -0.6820 Cl  0  0  0  0  0  0  0  0  0  0  0  0
    9.4510    7.4870    1.9810 C   0  0  2  0  0  3  0  0  0  0  0  0
    7.9470    9.0400    3.0440 O   0  0  0  0  0  0  0  0  0  0  0  0
    9.1580    8.6850    2.9500 C   0  0  0  0  0  0  0  0  0  0  0  0
   10.1490    9.0930    3.6310 O   0  0  0  0  0  1  0  0  0  0  0  0
   10.7970    6.7940    2.2870 C   0  0  0  0  0  2  0  0  0  0  0  0
   10.6800    5.7770    3.4060 C   0  0  0  0  0  0  0  0  0  0  0  0
   10.5400    4.4100    3.1320 C   0  0  0  0  0  3  0  0  0  0  0  0
   10.4150    3.4920    4.1750 C   0  0  0  0  0  3  0  0  0  0  0  0
   10.4240    3.9310    5.4990 C   0  0  0  0  0  3  0  0  0  0  0  0
   10.5580    5.2910    5.7800 C   0  0  0  0  0  3  0  0  0  0  0  0
   10.6850    6.2090    4.7390 C   0  0  0  0  0  3  0  0  0  0  0  0
    8.6450    6.7290   -0.2890 C   0  0  0  0  0  2  0  0  0  0  0  0
    9.2750    5.3740   -0.1650 C   0  0  0  0  0  0  0  0  0  0  0  0
   10.5340    4.9750   -0.5820 C   0  0  0  0  0  3  0  0  0  0  0  0
   10.7990    3.6040   -0.2870 C   0  0  0  0  0  3  0  0  0  0  0  0
    9.7470    3.0310    0.3770 C   0  0  0  0  0  0  0  0  0  0  0  0
    9.7330    1.2440    0.9410 Br  0  0  0  0  0  0  0  0  0  0  0  0
    8.4710    4.1040    0.6640 S   0  0  0  0  0  0  0  0  0  0  0  0
  1 12  1  0  0  0  0
  2  1  1  0  0  0  0
  2  3  2  0  0  0  0
  4  2  1  0  0  0  0
  5  4  2  0  0  0  0
  6  5  1  0  0  0  0
  7  6  2  0  0  0  0
  7  9  1  0  0  0  0
  8  7  1  0  0  0  0
  9 10  2  0  0  0  0
 10  4  1  0  0  0  0
 10 11  1  0  0  0  0
 12 16  1  6  0  0  0
 12 14  1  0  0  0  0
 14 13  2  0  0  0  0
 14 15  1  0  0  0  0
 16 17  1  0  0  0  0
 17 22  1  0  0  0  0
 18 17  2  0  0  0  0
 18 19  1  0  0  0  0
 19 20  2  0  0  0  0
 20 21  1  0  0  0  0
 22 21  2  0  0  0  0
 23 24  1  0  0  0  0
 23  1  1  0  0  0  0
 24 29  1  0  0  0  0
 25 26  1  0  0  0  0
 25 24  2  0  0  0  0
 26 27  2  0  0  0  0
 27 29  1  0  0  0  0
 27 28  1  0  0  0  0
M  END
>  <minimizedAffinity>
-0.298054367

$$$$
