
 OpenBabel09132204463D

 20 21  0  0  0  0  0  0  0  0999 V2000
    5.9490   -4.1670    3.5800 N   0  0  0  0  0  0  0  0  0  0  0  0
    5.2720   -3.5230    4.6090 C   0  0  0  0  0  0  0  0  0  0  0  0
    5.6520   -3.4250    5.7690 O   0  0  0  0  0  0  0  0  0  0  0  0
    3.9860   -2.9820    4.0890 C   0  0  0  0  0  0  0  0  0  0  0  0
    3.1480   -2.2950    4.8760 C   0  0  0  0  0  3  0  0  0  0  0  0
    3.8080   -3.3550    2.4160 S   0  0  0  0  0  0  0  0  0  0  0  0
    5.3470   -4.2100    2.3340 C   0  0  0  0  0  0  0  0  0  0  0  0
    5.9070   -4.9540    0.9490 S   0  0  0  0  0  0  0  0  0  0  0  0
    1.8670   -1.7090    4.4690 C   0  0  0  0  0  0  0  0  0  0  0  0
    0.6930   -2.1130    5.1200 C   0  0  0  0  0  3  0  0  0  0  0  0
   -0.5450   -1.5830    4.7420 C   0  0  0  0  0  3  0  0  0  0  0  0
   -0.6060   -0.6480    3.7010 C   0  0  0  0  0  0  0  0  0  0  0  0
    0.5590   -0.2460    3.0370 C   0  0  0  0  0  3  0  0  0  0  0  0
    1.7920   -0.7820    3.4210 C   0  0  0  0  0  3  0  0  0  0  0  0
   -1.9030   -0.0900    3.2990 N   0  0  0  0  0  0  0  0  0  0  0  0
   -2.2050   -0.1410    2.0970 O   0  0  0  0  0  0  0  0  0  0  0  0
   -2.6190    0.4020    4.1820 O   0  0  0  0  0  0  0  0  0  0  0  0
    7.2280   -4.7380    3.8400 N   0  0  0  0  0  0  0  0  0  0  0  0
    7.4450   -4.5530    4.8260 H   0  0  0  0  0  0  0  0  0  0  0  0
    7.1370   -5.7520    3.7630 H   0  0  0  0  0  0  0  0  0  0  0  0
  1 18  1  0  0  0  0
  1  2  1  0  0  0  0
  2  3  2  0  0  0  0
  4  2  1  0  0  0  0
  4  5  2  0  0  0  0
  6  4  1  0  0  0  0
  7  6  1  0  0  0  0
  7  1  1  0  0  0  0
  8  7  2  0  0  0  0
  9  5  1  0  0  0  0
  9 10  1  0  0  0  0
 11 10  2  0  0  0  0
 12 11  1  0  0  0  0
 13 14  1  0  0  0  0
 13 12  2  0  0  0  0
 14  9  2  0  0  0  0
 15 12  1  0  0  0  0
 15 17  2  0  0  0  0
 16 15  2  0  0  0  0
 18 19  1  0  0  0  0
 20 18  1  0  0  0  0
M  END
>  <minimizedAffinity>
20.5014172

$$$$
