
 OpenBabel09122222393D

 32 35  0  0  0  0  0  0  0  0999 V2000
    0.5750   -5.8990    5.4400 N   0  0  0  0  0  0  0  0  0  0  0  0
    1.7270   -6.3690    4.8400 C   0  0  0  0  0  0  0  0  0  0  0  0
    1.5660   -7.7410    4.6390 C   0  0  0  0  0  0  0  0  0  0  0  0
    0.2610   -8.0930    5.1320 C   0  0  0  0  0  0  0  0  0  0  0  0
   -0.4860   -9.2900    5.1980 C   0  0  0  0  0  3  0  0  0  0  0  0
   -1.7790   -9.2870    5.7420 C   0  0  0  0  0  3  0  0  0  0  0  0
   -2.3610   -8.1140    6.2320 C   0  0  0  0  0  0  0  0  0  0  0  0
   -1.6180   -6.9240    6.1770 C   0  0  0  0  0  3  0  0  0  0  0  0
   -0.3260   -6.9300    5.6260 C   0  0  0  0  0  0  0  0  0  0  0  0
    2.8640   -5.5180    4.4960 C   0  0  0  0  0  0  0  0  0  0  0  0
    2.8650   -4.7920    3.2990 C   0  0  0  0  0  3  0  0  0  0  0  0
    3.9520   -3.9820    2.9670 C   0  0  0  0  0  3  0  0  0  0  0  0
    5.0450   -3.8930    3.8290 C   0  0  0  0  0  3  0  0  0  0  0  0
    5.0530   -4.6160    5.0210 C   0  0  0  0  0  3  0  0  0  0  0  0
    3.9660   -5.4290    5.3520 C   0  0  0  0  0  3  0  0  0  0  0  0
    2.5860   -8.6630    4.0080 C   0  0  0  0  0  3  0  0  0  0  0  0
    2.6390   -8.5340    2.4760 C   0  0  0  0  0  2  0  0  0  0  0  0
    3.6590   -9.4950    1.8690 C   0  0  0  0  0  2  0  0  0  0  0  0
    5.0400   -9.3210    2.4940 C   0  0  0  0  0  2  0  0  0  0  0  0
    4.9920   -9.4610    4.0120 C   0  0  0  0  0  2  0  0  0  0  0  0
    3.9810   -8.5000    4.6350 C   0  0  0  0  0  2  0  0  0  0  0  0
   -3.7670   -8.1080    6.8070 C   0  0  0  0  0  0  0  0  0  0  0  0
   -4.2040   -6.9990    7.2550 O   0  0  0  0  0  1  0  0  0  0  0  0
   -4.4070   -9.2060    6.7910 O   0  0  0  0  0  0  0  0  0  0  0  0
    0.2490   -4.5010    5.7220 C   0  0  0  0  0  2  0  0  0  0  0  0
    1.7130   -2.4860    6.0790 N   0  0  0  0  0  0  0  0  0  0  0  0
    1.2090   -1.8210    4.8820 C   0  0  0  0  0  1  0  0  0  0  0  0
    1.3710   -3.7860    6.4630 C   0  0  0  0  0  0  0  0  0  0  0  0
    1.9690   -4.3620    7.3780 O   0  0  0  0  0  0  0  0  0  0  0  0
    4.0360   -1.6560    6.5090 C   0  0  0  0  0  1  0  0  0  0  0  0
    2.5700   -1.6620    6.9510 C   0  0  0  0  0  3  0  0  0  0  0  0
    2.0230   -0.2460    7.1370 C   0  0  0  0  0  1  0  0  0  0  0  0
  1  9  1  0  0  0  0
  1 25  1  0  0  0  0
  2  1  1  0  0  0  0
  3  2  2  0  0  0  0
  3  4  1  0  0  0  0
  4  5  2  0  0  0  0
  4  9  1  0  0  0  0
  5  6  1  0  0  0  0
  6  7  2  0  0  0  0
  7 22  1  0  0  0  0
  8  7  1  0  0  0  0
  9  8  2  0  0  0  0
 10  2  1  0  0  0  0
 10 15  1  0  0  0  0
 11 10  2  0  0  0  0
 12 11  1  0  0  0  0
 12 13  2  0  0  0  0
 13 14  1  0  0  0  0
 14 15  2  0  0  0  0
 16 21  1  0  0  0  0
 16  3  1  0  0  0  0
 17 16  1  0  0  0  0
 18 17  1  0  0  0  0
 18 19  1  0  0  0  0
 19 20  1  0  0  0  0
 20 21  1  0  0  0  0
 22 23  1  0  0  0  0
 24 22  2  0  0  0  0
 25 28  1  0  0  0  0
 26 28  1  0  0  0  0
 26 31  1  0  0  0  0
 27 26  1  0  0  0  0
 28 29  2  0  0  0  0
 30 31  1  0  0  0  0
 31 32  1  0  0  0  0
M  END
>  <minimizedAffinity>
0.763602972

$$$$
