
 OpenBabel09122222393D

 28 29  0  0  0  0  0  0  0  0999 V2000
    2.2300   -2.1610    6.1650 C   0  0  0  0  0  0  0  0  0  0  0  0
    1.5780   -0.9950    5.9630 C   0  0  0  0  0  2  0  0  0  0  0  0
    0.6960   -0.6740    4.8370 C   0  0  0  0  0  0  0  0  0  0  0  0
    1.1800   -0.6530    3.5230 C   0  0  0  0  0  3  0  0  0  0  0  0
    0.3250   -0.3530    2.4610 C   0  0  0  0  0  3  0  0  0  0  0  0
   -1.0200   -0.0870    2.7120 C   0  0  0  0  0  0  0  0  0  0  0  0
   -1.5060   -0.0670    4.0220 C   0  0  0  0  0  3  0  0  0  0  0  0
   -0.6470   -0.3640    5.0810 C   0  0  0  0  0  3  0  0  0  0  0  0
   -1.8270    0.2000    1.6340 O   0  0  0  0  0  0  0  0  0  0  0  0
   -3.1880    0.1530    1.8550 C   0  0  0  0  0  0  0  0  0  0  0  0
   -3.7720   -0.9410    2.5080 C   0  0  0  0  0  3  0  0  0  0  0  0
   -5.1540   -0.9940    2.6950 C   0  0  0  0  0  3  0  0  0  0  0  0
   -5.9620    0.0370    2.2180 C   0  0  0  0  0  3  0  0  0  0  0  0
   -5.3900    1.1200    1.5470 C   0  0  0  0  0  3  0  0  0  0  0  0
   -4.0050    1.1750    1.3580 C   0  0  0  0  0  0  0  0  0  0  0  0
   -3.2180    2.8260    0.3380 I   0  0  0  0  0  0  0  0  0  0  0  0
    2.8600   -3.8700    4.4190 C   0  0  0  0  0  0  0  0  0  0  0  0
    2.5080   -4.9860    4.0150 O   0  0  0  0  0  0  0  0  0  0  0  0
    2.0360   -3.2430    5.3170 N   0  0  0  0  0  4  0  0  0  0  0  0
    1.1410   -3.7060    5.3680 H   0  0  0  0  0  0  0  0  0  0  0  0
    4.1410   -3.1960    3.9680 C   0  0  0  0  0  2  0  0  0  0  0  0
    5.3680   -4.0970    4.0960 C   0  0  0  0  0  2  0  0  0  0  0  0
    6.1320   -4.2760    6.3520 O   0  0  0  0  0  1  0  0  0  0  0  0
    6.3520   -3.7680    5.2190 C   0  0  0  0  0  0  0  0  0  0  0  0
    7.3280   -3.0420    4.8550 O   0  0  0  0  0  0  0  0  0  0  0  0
    3.0530   -2.1760    7.4960 C   0  0  0  0  0  0  0  0  0  0  0  0
    3.4030   -1.0340    7.9180 O   0  0  0  0  0  0  0  0  0  0  0  0
    3.3850   -3.3210    7.9240 O   0  0  0  0  0  1  0  0  0  0  0  0
  1 26  1  0  0  0  0
  2  1  1  0  0  0  0
  3  8  1  0  0  0  0
  3  2  1  0  0  0  0
  4  3  2  0  0  0  0
  5  6  2  0  0  0  0
  5  4  1  0  0  0  0
  6  7  1  0  0  0  0
  7  8  2  0  0  0  0
  9 10  1  0  0  0  0
  9  6  1  0  0  0  0
 10 11  1  0  0  0  0
 11 12  2  0  0  0  0
 13 12  1  0  0  0  0
 14 13  2  0  0  0  0
 15 14  1  0  0  0  0
 15 10  2  0  0  0  0
 16 15  1  0  0  0  0
 17 19  1  0  0  0  0
 18 17  2  0  0  0  0
 19 20  1  0  0  0  0
 19  1  2  0  0  0  0
 21 22  1  0  0  0  0
 21 17  1  0  0  0  0
 22 24  1  0  0  0  0
 24 23  1  0  0  0  0
 25 24  2  0  0  0  0
 26 27  2  0  0  0  0
 26 28  1  0  0  0  0
M  END
>  <minimizedAffinity>
25.7666607

$$$$
