
 OpenBabel09122222393D

 28 29  0  0  0  0  0  0  0  0999 V2000
    2.7550   -2.4620    5.6340 C   0  0  0  0  0  0  0  0  0  0  0  0
    1.6530   -1.7130    5.8560 C   0  0  0  0  0  2  0  0  0  0  0  0
    0.7840   -1.1190    4.8360 C   0  0  0  0  0  0  0  0  0  0  0  0
    1.1780   -1.0650    3.4930 C   0  0  0  0  0  3  0  0  0  0  0  0
    0.3350   -0.5030    2.5330 C   0  0  0  0  0  3  0  0  0  0  0  0
   -0.9100   -0.0050    2.9130 C   0  0  0  0  0  0  0  0  0  0  0  0
   -1.2980   -0.0180    4.2550 C   0  0  0  0  0  3  0  0  0  0  0  0
   -0.4500   -0.5780    5.2130 C   0  0  0  0  0  3  0  0  0  0  0  0
   -1.7080    0.5380    1.9320 O   0  0  0  0  0  0  0  0  0  0  0  0
   -3.0630    0.2960    2.0390 C   0  0  0  0  0  0  0  0  0  0  0  0
   -3.5390   -0.8430    2.7000 C   0  0  0  0  0  3  0  0  0  0  0  0
   -4.9100   -1.0940    2.7720 C   0  0  0  0  0  3  0  0  0  0  0  0
   -5.8120   -0.2180    2.1700 C   0  0  0  0  0  3  0  0  0  0  0  0
   -5.3440    0.9080    1.4890 C   0  0  0  0  0  3  0  0  0  0  0  0
   -3.9690    1.1620    1.4160 C   0  0  0  0  0  0  0  0  0  0  0  0
   -3.3400    2.8660    0.3760 I   0  0  0  0  0  0  0  0  0  0  0  0
    4.0350   -3.7290    3.8670 C   0  0  0  0  0  0  0  0  0  0  0  0
    3.9460   -4.0410    2.6730 O   0  0  0  0  0  0  0  0  0  0  0  0
    3.1260   -2.8220    4.3460 N   0  0  0  0  0  4  0  0  0  0  0  0
    2.6270   -2.3790    3.5890 H   0  0  0  0  0  0  0  0  0  0  0  0
    5.0880   -4.3060    4.7940 C   0  0  0  0  0  2  0  0  0  0  0  0
    6.3680   -3.4750    4.8350 C   0  0  0  0  0  2  0  0  0  0  0  0
    7.3350   -2.0060    6.4510 O   0  0  0  0  0  0  0  0  0  0  0  0
    6.9590   -3.1860    6.2150 C   0  0  0  0  0  0  0  0  0  0  0  0
    6.9540   -4.1840    7.0000 O   0  0  0  0  0  1  0  0  0  0  0  0
    3.4200   -2.9730    6.9560 C   0  0  0  0  0  0  0  0  0  0  0  0
    4.0640   -2.0940    7.6020 O   0  0  0  0  0  1  0  0  0  0  0  0
    3.3510   -4.2220    7.1590 O   0  0  0  0  0  0  0  0  0  0  0  0
  1  2  1  0  0  0  0
  1 26  1  0  0  0  0
  3  8  1  0  0  0  0
  3  2  1  0  0  0  0
  4  3  2  0  0  0  0
  5  6  2  0  0  0  0
  5  4  1  0  0  0  0
  6  7  1  0  0  0  0
  7  8  2  0  0  0  0
  9 10  1  0  0  0  0
  9  6  1  0  0  0  0
 10 11  1  0  0  0  0
 11 12  2  0  0  0  0
 13 12  1  0  0  0  0
 14 13  2  0  0  0  0
 15 14  1  0  0  0  0
 15 10  2  0  0  0  0
 16 15  1  0  0  0  0
 17 19  1  0  0  0  0
 17 21  1  0  0  0  0
 18 17  2  0  0  0  0
 19  1  2  0  0  0  0
 20 19  1  0  0  0  0
 21 22  1  0  0  0  0
 22 24  1  0  0  0  0
 24 23  2  0  0  0  0
 24 25  1  0  0  0  0
 26 28  2  0  0  0  0
 26 27  1  0  0  0  0
M  END
>  <minimizedAffinity>
24.8571472

$$$$
