
 OpenBabel09122222393D

 28 29  0  0  0  0  0  0  0  0999 V2000
    2.4990   -2.8260    5.3520 C   0  0  0  0  0  0  0  0  0  0  0  0
    2.0300   -2.5630    4.1140 C   0  0  0  0  0  2  0  0  0  0  0  0
    0.9360   -1.6470    3.7730 C   0  0  0  0  0  0  0  0  0  0  0  0
    0.9150   -0.9700    2.5470 C   0  0  0  0  0  3  0  0  0  0  0  0
   -0.1380   -0.1090    2.2360 C   0  0  0  0  0  3  0  0  0  0  0  0
   -1.1790    0.0670    3.1460 C   0  0  0  0  0  0  0  0  0  0  0  0
   -1.1490   -0.5720    4.3880 C   0  0  0  0  0  3  0  0  0  0  0  0
   -0.0920   -1.4310    4.6970 C   0  0  0  0  0  3  0  0  0  0  0  0
   -2.1970    0.9240    2.7950 O   0  0  0  0  0  0  0  0  0  0  0  0
   -3.4170    0.3450    2.5100 C   0  0  0  0  0  0  0  0  0  0  0  0
   -3.7360   -0.9320    2.9900 C   0  0  0  0  0  3  0  0  0  0  0  0
   -4.9590   -1.5210    2.6650 C   0  0  0  0  0  3  0  0  0  0  0  0
   -5.8620   -0.8450    1.8470 C   0  0  0  0  0  3  0  0  0  0  0  0
   -5.5430    0.4180    1.3460 C   0  0  0  0  0  3  0  0  0  0  0  0
   -4.3170    1.0110    1.6700 C   0  0  0  0  0  0  0  0  0  0  0  0
   -3.9030    2.9050    0.8790 I   0  0  0  0  0  0  0  0  0  0  0  0
    2.5100   -1.0940    7.1870 C   0  0  0  0  0  0  0  0  0  0  0  0
    1.7230   -0.5100    7.9440 O   0  0  0  0  0  0  0  0  0  0  0  0
    2.0140   -2.1440    6.4600 N   0  0  0  0  0  4  0  0  0  0  0  0
    1.1070   -2.4230    6.8030 H   0  0  0  0  0  0  0  0  0  0  0  0
    3.9640   -0.6910    7.0390 C   0  0  0  0  0  2  0  0  0  0  0  0
    4.9050   -1.5180    7.9130 C   0  0  0  0  0  2  0  0  0  0  0  0
    6.9100   -0.3540    7.3390 O   0  0  0  0  0  0  0  0  0  0  0  0
    6.3910   -1.4830    7.5530 C   0  0  0  0  0  0  0  0  0  0  0  0
    6.9520   -2.6220    7.5620 O   0  0  0  0  0  1  0  0  0  0  0  0
    3.7070   -3.8220    5.3470 C   0  0  0  0  0  0  0  0  0  0  0  0
    4.5110   -3.6770    4.3790 O   0  0  0  0  0  0  0  0  0  0  0  0
    3.6710   -4.7340    6.2260 O   0  0  0  0  0  1  0  0  0  0  0  0
  1 19  2  0  0  0  0
  2  1  1  0  0  0  0
  3  2  1  0  0  0  0
  3  8  1  0  0  0  0
  4  3  2  0  0  0  0
  5  4  1  0  0  0  0
  5  6  2  0  0  0  0
  6  7  1  0  0  0  0
  7  8  2  0  0  0  0
  9  6  1  0  0  0  0
 10  9  1  0  0  0  0
 10 11  1  0  0  0  0
 12 11  2  0  0  0  0
 13 12  1  0  0  0  0
 14 15  1  0  0  0  0
 14 13  2  0  0  0  0
 15 10  2  0  0  0  0
 16 15  1  0  0  0  0
 17 18  2  0  0  0  0
 19 20  1  0  0  0  0
 19 17  1  0  0  0  0
 21 17  1  0  0  0  0
 21 22  1  0  0  0  0
 23 24  2  0  0  0  0
 24 25  1  0  0  0  0
 24 22  1  0  0  0  0
 26  1  1  0  0  0  0
 26 28  1  0  0  0  0
 27 26  2  0  0  0  0
M  END
>  <minimizedAffinity>
25.3916702

$$$$
