
 OpenBabel09122221093D

 28 29  0  0  0  0  0  0  0  0999 V2000
   -3.5810    0.9340    2.1390 C   0  0  0  0  0  0  0  0  0  0  0  0
   -2.2400    1.0310    2.2710 C   0  0  0  0  0  2  0  0  0  0  0  0
   -1.3610    0.0780    2.9550 C   0  0  0  0  0  0  0  0  0  0  0  0
   -1.8750   -0.8540    3.8660 C   0  0  0  0  0  3  0  0  0  0  0  0
   -1.0250   -1.7600    4.5030 C   0  0  0  0  0  3  0  0  0  0  0  0
    0.3400   -1.7430    4.2190 C   0  0  0  0  0  0  0  0  0  0  0  0
    0.8690   -0.7920    3.3420 C   0  0  0  0  0  3  0  0  0  0  0  0
    0.0160    0.1140    2.7100 C   0  0  0  0  0  3  0  0  0  0  0  0
    1.1390   -2.6560    4.8690 O   0  0  0  0  0  0  0  0  0  0  0  0
    2.0880   -2.1410    5.7280 C   0  0  0  0  0  0  0  0  0  0  0  0
    1.7570   -1.1330    6.6420 C   0  0  0  0  0  3  0  0  0  0  0  0
    2.7340   -0.5960    7.4820 C   0  0  0  0  0  3  0  0  0  0  0  0
    4.0480   -1.0510    7.4030 C   0  0  0  0  0  3  0  0  0  0  0  0
    4.3910   -2.0390    6.4780 C   0  0  0  0  0  3  0  0  0  0  0  0
    3.4140   -2.5800    5.6350 C   0  0  0  0  0  0  0  0  0  0  0  0
    4.0010   -4.0550    4.2700 I   0  0  0  0  0  0  0  0  0  0  0  0
   -5.3520   -0.8630    2.1050 C   0  0  0  0  0  0  0  0  0  0  0  0
   -5.5620   -1.9950    2.5600 O   0  0  0  0  0  0  0  0  0  0  0  0
   -4.2630   -0.1870    2.5920 N   0  0  0  0  0  4  0  0  0  0  0  0
   -3.8960   -0.6410    3.4140 H   0  0  0  0  0  0  0  0  0  0  0  0
   -6.2340   -0.2210    1.0530 C   0  0  0  0  0  2  0  0  0  0  0  0
   -7.7200   -0.5020    1.2650 C   0  0  0  0  0  2  0  0  0  0  0  0
   -9.8600    0.5140    0.9620 O   0  0  0  0  0  1  0  0  0  0  0  0
   -8.7060    0.3620    0.4780 C   0  0  0  0  0  0  0  0  0  0  0  0
   -8.2160    0.8780   -0.5740 O   0  0  0  0  0  0  0  0  0  0  0  0
   -4.1980    2.1080    1.3080 C   0  0  0  0  0  0  0  0  0  0  0  0
   -3.4780    2.5180    0.3490 O   0  0  0  0  0  0  0  0  0  0  0  0
   -5.2740    2.5980    1.7640 O   0  0  0  0  0  1  0  0  0  0  0  0
  1  2  1  0  0  0  0
  1 19  2  0  0  0  0
  2  3  1  0  0  0  0
  3  4  1  0  0  0  0
  4  5  2  0  0  0  0
  6  5  1  0  0  0  0
  6  9  1  0  0  0  0
  7  6  2  0  0  0  0
  8  3  2  0  0  0  0
  8  7  1  0  0  0  0
  9 10  1  0  0  0  0
 10 11  1  0  0  0  0
 11 12  2  0  0  0  0
 13 12  1  0  0  0  0
 14 13  2  0  0  0  0
 15 10  2  0  0  0  0
 15 14  1  0  0  0  0
 16 15  1  0  0  0  0
 17 18  2  0  0  0  0
 17 19  1  0  0  0  0
 19 20  1  0  0  0  0
 21 22  1  0  0  0  0
 21 17  1  0  0  0  0
 24 23  1  0  0  0  0
 24 22  1  0  0  0  0
 25 24  2  0  0  0  0
 26 28  1  0  0  0  0
 26  1  1  0  0  0  0
 27 26  2  0  0  0  0
M  END
>  <minimizedAffinity>
24.0185032

$$$$

 OpenBabel09122221093D

 28 29  0  0  0  0  0  0  0  0999 V2000
    2.7550   -2.4620    5.6340 C   0  0  0  0  0  0  0  0  0  0  0  0
    1.6530   -1.7130    5.8560 C   0  0  0  0  0  2  0  0  0  0  0  0
    0.7840   -1.1190    4.8360 C   0  0  0  0  0  0  0  0  0  0  0  0
    1.1780   -1.0650    3.4930 C   0  0  0  0  0  3  0  0  0  0  0  0
    0.3350   -0.5030    2.5330 C   0  0  0  0  0  3  0  0  0  0  0  0
   -0.9100   -0.0050    2.9130 C   0  0  0  0  0  0  0  0  0  0  0  0
   -1.2980   -0.0180    4.2550 C   0  0  0  0  0  3  0  0  0  0  0  0
   -0.4500   -0.5780    5.2130 C   0  0  0  0  0  3  0  0  0  0  0  0
   -1.7080    0.5380    1.9320 O   0  0  0  0  0  0  0  0  0  0  0  0
   -3.0630    0.2960    2.0390 C   0  0  0  0  0  0  0  0  0  0  0  0
   -3.5390   -0.8430    2.7000 C   0  0  0  0  0  3  0  0  0  0  0  0
   -4.9100   -1.0940    2.7720 C   0  0  0  0  0  3  0  0  0  0  0  0
   -5.8120   -0.2180    2.1700 C   0  0  0  0  0  3  0  0  0  0  0  0
   -5.3440    0.9080    1.4890 C   0  0  0  0  0  3  0  0  0  0  0  0
   -3.9690    1.1620    1.4160 C   0  0  0  0  0  0  0  0  0  0  0  0
   -3.3400    2.8660    0.3760 I   0  0  0  0  0  0  0  0  0  0  0  0
    4.0350   -3.7290    3.8670 C   0  0  0  0  0  0  0  0  0  0  0  0
    3.9460   -4.0410    2.6730 O   0  0  0  0  0  0  0  0  0  0  0  0
    3.1260   -2.8220    4.3460 N   0  0  0  0  0  4  0  0  0  0  0  0
    2.6270   -2.3790    3.5890 H   0  0  0  0  0  0  0  0  0  0  0  0
    5.0880   -4.3060    4.7940 C   0  0  0  0  0  2  0  0  0  0  0  0
    6.3680   -3.4750    4.8350 C   0  0  0  0  0  2  0  0  0  0  0  0
    7.3350   -2.0060    6.4510 O   0  0  0  0  0  0  0  0  0  0  0  0
    6.9590   -3.1860    6.2150 C   0  0  0  0  0  0  0  0  0  0  0  0
    6.9540   -4.1840    7.0000 O   0  0  0  0  0  1  0  0  0  0  0  0
    3.4200   -2.9730    6.9560 C   0  0  0  0  0  0  0  0  0  0  0  0
    4.0640   -2.0940    7.6020 O   0  0  0  0  0  1  0  0  0  0  0  0
    3.3510   -4.2220    7.1590 O   0  0  0  0  0  0  0  0  0  0  0  0
  1  2  1  0  0  0  0
  1 26  1  0  0  0  0
  3  8  1  0  0  0  0
  3  2  1  0  0  0  0
  4  3  2  0  0  0  0
  5  6  2  0  0  0  0
  5  4  1  0  0  0  0
  6  7  1  0  0  0  0
  7  8  2  0  0  0  0
  9 10  1  0  0  0  0
  9  6  1  0  0  0  0
 10 11  1  0  0  0  0
 11 12  2  0  0  0  0
 13 12  1  0  0  0  0
 14 13  2  0  0  0  0
 15 14  1  0  0  0  0
 15 10  2  0  0  0  0
 16 15  1  0  0  0  0
 17 19  1  0  0  0  0
 17 21  1  0  0  0  0
 18 17  2  0  0  0  0
 19  1  2  0  0  0  0
 20 19  1  0  0  0  0
 21 22  1  0  0  0  0
 22 24  1  0  0  0  0
 24 23  2  0  0  0  0
 24 25  1  0  0  0  0
 26 28  2  0  0  0  0
 26 27  1  0  0  0  0
M  END
>  <minimizedAffinity>
24.8571472

$$$$

 OpenBabel09122221093D

 28 29  0  0  0  0  0  0  0  0999 V2000
    2.0110   -1.5430    5.7370 C   0  0  0  0  0  0  0  0  0  0  0  0
    1.3160   -0.4560    5.3350 C   0  0  0  0  0  2  0  0  0  0  0  0
    0.2650   -0.4230    4.3130 C   0  0  0  0  0  0  0  0  0  0  0  0
   -1.0890   -0.4340    4.6690 C   0  0  0  0  0  3  0  0  0  0  0  0
   -2.0770   -0.3930    3.6840 C   0  0  0  0  0  3  0  0  0  0  0  0
   -1.7110   -0.3290    2.3410 C   0  0  0  0  0  0  0  0  0  0  0  0
   -0.3630   -0.3580    1.9720 C   0  0  0  0  0  3  0  0  0  0  0  0
    0.6220   -0.4010    2.9600 C   0  0  0  0  0  3  0  0  0  0  0  0
   -2.7190   -0.2880    1.4040 O   0  0  0  0  0  0  0  0  0  0  0  0
   -3.4490    0.8810    1.3380 C   0  0  0  0  0  0  0  0  0  0  0  0
   -2.8440    2.0840    0.9510 C   0  0  0  0  0  3  0  0  0  0  0  0
   -3.5850    3.2660    0.9210 C   0  0  0  0  0  3  0  0  0  0  0  0
   -4.9290    3.2570    1.2920 C   0  0  0  0  0  3  0  0  0  0  0  0
   -5.5330    2.0660    1.7000 C   0  0  0  0  0  3  0  0  0  0  0  0
   -4.7920    0.8790    1.7310 C   0  0  0  0  0  0  0  0  0  0  0  0
   -5.7620   -0.8680    2.3580 I   0  0  0  0  0  0  0  0  0  0  0  0
    2.3630   -3.6430    4.3840 C   0  0  0  0  0  0  0  0  0  0  0  0
    1.9960   -4.8250    4.3560 O   0  0  0  0  0  0  0  0  0  0  0  0
    1.7060   -2.8060    5.2480 N   0  0  0  0  0  4  0  0  0  0  0  0
    0.8660   -3.2390    5.6000 H   0  0  0  0  0  0  0  0  0  0  0  0
    3.4890   -3.1090    3.5210 C   0  0  0  0  0  2  0  0  0  0  0  0
    4.4530   -4.1980    3.0540 C   0  0  0  0  0  2  0  0  0  0  0  0
    5.9070   -4.1190    4.9470 O   0  0  0  0  0  1  0  0  0  0  0  0
    5.8430   -4.2090    3.6910 C   0  0  0  0  0  0  0  0  0  0  0  0
    6.7920   -4.3610    2.8610 O   0  0  0  0  0  0  0  0  0  0  0  0
    3.0300   -1.2250    6.8810 C   0  0  0  0  0  0  0  0  0  0  0  0
    4.1810   -1.7320    6.7250 O   0  0  0  0  0  0  0  0  0  0  0  0
    2.5570   -0.6150    7.8860 O   0  0  0  0  0  1  0  0  0  0  0  0
  1 26  1  0  0  0  0
  2  1  1  0  0  0  0
  3  4  1  0  0  0  0
  3  2  1  0  0  0  0
  5  4  2  0  0  0  0
  6  5  1  0  0  0  0
  7  6  2  0  0  0  0
  7  8  1  0  0  0  0
  8  3  2  0  0  0  0
  9  6  1  0  0  0  0
 10  9  1  0  0  0  0
 10 15  1  0  0  0  0
 11 10  2  0  0  0  0
 12 11  1  0  0  0  0
 12 13  2  0  0  0  0
 13 14  1  0  0  0  0
 14 15  2  0  0  0  0
 15 16  1  0  0  0  0
 17 19  1  0  0  0  0
 18 17  2  0  0  0  0
 19 20  1  0  0  0  0
 19  1  2  0  0  0  0
 21 17  1  0  0  0  0
 22 21  1  0  0  0  0
 22 24  1  0  0  0  0
 24 23  1  0  0  0  0
 25 24  2  0  0  0  0
 26 28  1  0  0  0  0
 27 26  2  0  0  0  0
M  END
>  <minimizedAffinity>
25.1239662

$$$$

 OpenBabel09122221093D

 28 29  0  0  0  0  0  0  0  0999 V2000
   -3.4730    0.8490    2.0990 C   0  0  0  0  0  0  0  0  0  0  0  0
   -2.1380    0.9110    2.2990 C   0  0  0  0  0  2  0  0  0  0  0  0
   -1.3330   -0.0180    3.0980 C   0  0  0  0  0  0  0  0  0  0  0  0
   -1.9380   -1.0080    3.8820 C   0  0  0  0  0  3  0  0  0  0  0  0
   -1.1560   -1.8900    4.6300 C   0  0  0  0  0  3  0  0  0  0  0  0
    0.2340   -1.7900    4.5850 C   0  0  0  0  0  0  0  0  0  0  0  0
    0.8470   -0.7810    3.8380 C   0  0  0  0  0  3  0  0  0  0  0  0
    0.0610    0.1010    3.0930 C   0  0  0  0  0  3  0  0  0  0  0  0
    0.9640   -2.6820    5.3370 O   0  0  0  0  0  0  0  0  0  0  0  0
    2.2660   -2.9030    4.9360 C   0  0  0  0  0  0  0  0  0  0  0  0
    2.5460   -3.6530    3.7860 C   0  0  0  0  0  3  0  0  0  0  0  0
    3.8670   -3.8980    3.4100 C   0  0  0  0  0  3  0  0  0  0  0  0
    4.9150   -3.4090    4.1870 C   0  0  0  0  0  3  0  0  0  0  0  0
    4.6450   -2.6800    5.3470 C   0  0  0  0  0  3  0  0  0  0  0  0
    3.3200   -2.4330    5.7270 C   0  0  0  0  0  0  0  0  0  0  0  0
    2.9900   -1.3370    7.4790 I   0  0  0  0  0  0  0  0  0  0  0  0
   -5.3770   -0.8050    2.1590 C   0  0  0  0  0  0  0  0  0  0  0  0
   -5.6550   -1.9140    2.6330 O   0  0  0  0  0  0  0  0  0  0  0  0
   -4.2190   -0.2120    2.5920 N   0  0  0  0  0  4  0  0  0  0  0  0
   -3.8530   -0.6880    3.4020 H   0  0  0  0  0  0  0  0  0  0  0  0
   -6.2520   -0.1020    1.1400 C   0  0  0  0  0  2  0  0  0  0  0  0
   -7.6640   -0.6790    1.0650 C   0  0  0  0  0  2  0  0  0  0  0  0
   -9.8870    0.1950    1.1010 O   0  0  0  0  0  1  0  0  0  0  0  0
   -8.7610    0.2470    0.5360 C   0  0  0  0  0  0  0  0  0  0  0  0
   -8.3830    1.0140   -0.4020 O   0  0  0  0  0  0  0  0  0  0  0  0
   -4.0000    1.9800    1.1540 C   0  0  0  0  0  0  0  0  0  0  0  0
   -3.2240    2.2790    0.1980 O   0  0  0  0  0  0  0  0  0  0  0  0
   -5.0690    2.5510    1.5240 O   0  0  0  0  0  1  0  0  0  0  0  0
  1  2  1  0  0  0  0
  1 19  2  0  0  0  0
  2  3  1  0  0  0  0
  3  4  1  0  0  0  0
  4  5  2  0  0  0  0
  6  5  1  0  0  0  0
  6  9  1  0  0  0  0
  7  6  2  0  0  0  0
  8  3  2  0  0  0  0
  8  7  1  0  0  0  0
 10  9  1  0  0  0  0
 10 15  1  0  0  0  0
 11 10  2  0  0  0  0
 12 11  1  0  0  0  0
 12 13  2  0  0  0  0
 13 14  1  0  0  0  0
 14 15  2  0  0  0  0
 15 16  1  0  0  0  0
 17 19  1  0  0  0  0
 17 18  2  0  0  0  0
 19 20  1  0  0  0  0
 21 17  1  0  0  0  0
 22 21  1  0  0  0  0
 24 22  1  0  0  0  0
 24 23  1  0  0  0  0
 25 24  2  0  0  0  0
 26 28  1  0  0  0  0
 26  1  1  0  0  0  0
 27 26  2  0  0  0  0
M  END
>  <minimizedAffinity>
25.3619328

$$$$

 OpenBabel09122221093D

 28 29  0  0  0  0  0  0  0  0999 V2000
    2.4990   -2.8260    5.3520 C   0  0  0  0  0  0  0  0  0  0  0  0
    2.0300   -2.5630    4.1140 C   0  0  0  0  0  2  0  0  0  0  0  0
    0.9360   -1.6470    3.7730 C   0  0  0  0  0  0  0  0  0  0  0  0
    0.9150   -0.9700    2.5470 C   0  0  0  0  0  3  0  0  0  0  0  0
   -0.1380   -0.1090    2.2360 C   0  0  0  0  0  3  0  0  0  0  0  0
   -1.1790    0.0670    3.1460 C   0  0  0  0  0  0  0  0  0  0  0  0
   -1.1490   -0.5720    4.3880 C   0  0  0  0  0  3  0  0  0  0  0  0
   -0.0920   -1.4310    4.6970 C   0  0  0  0  0  3  0  0  0  0  0  0
   -2.1970    0.9240    2.7950 O   0  0  0  0  0  0  0  0  0  0  0  0
   -3.4170    0.3450    2.5100 C   0  0  0  0  0  0  0  0  0  0  0  0
   -3.7360   -0.9320    2.9900 C   0  0  0  0  0  3  0  0  0  0  0  0
   -4.9590   -1.5210    2.6650 C   0  0  0  0  0  3  0  0  0  0  0  0
   -5.8620   -0.8450    1.8470 C   0  0  0  0  0  3  0  0  0  0  0  0
   -5.5430    0.4180    1.3460 C   0  0  0  0  0  3  0  0  0  0  0  0
   -4.3170    1.0110    1.6700 C   0  0  0  0  0  0  0  0  0  0  0  0
   -3.9030    2.9050    0.8790 I   0  0  0  0  0  0  0  0  0  0  0  0
    2.5100   -1.0940    7.1870 C   0  0  0  0  0  0  0  0  0  0  0  0
    1.7230   -0.5100    7.9440 O   0  0  0  0  0  0  0  0  0  0  0  0
    2.0140   -2.1440    6.4600 N   0  0  0  0  0  4  0  0  0  0  0  0
    1.1070   -2.4230    6.8030 H   0  0  0  0  0  0  0  0  0  0  0  0
    3.9640   -0.6910    7.0390 C   0  0  0  0  0  2  0  0  0  0  0  0
    4.9050   -1.5180    7.9130 C   0  0  0  0  0  2  0  0  0  0  0  0
    6.9100   -0.3540    7.3390 O   0  0  0  0  0  0  0  0  0  0  0  0
    6.3910   -1.4830    7.5530 C   0  0  0  0  0  0  0  0  0  0  0  0
    6.9520   -2.6220    7.5620 O   0  0  0  0  0  1  0  0  0  0  0  0
    3.7070   -3.8220    5.3470 C   0  0  0  0  0  0  0  0  0  0  0  0
    4.5110   -3.6770    4.3790 O   0  0  0  0  0  0  0  0  0  0  0  0
    3.6710   -4.7340    6.2260 O   0  0  0  0  0  1  0  0  0  0  0  0
  1 19  2  0  0  0  0
  2  1  1  0  0  0  0
  3  2  1  0  0  0  0
  3  8  1  0  0  0  0
  4  3  2  0  0  0  0
  5  4  1  0  0  0  0
  5  6  2  0  0  0  0
  6  7  1  0  0  0  0
  7  8  2  0  0  0  0
  9  6  1  0  0  0  0
 10  9  1  0  0  0  0
 10 11  1  0  0  0  0
 12 11  2  0  0  0  0
 13 12  1  0  0  0  0
 14 15  1  0  0  0  0
 14 13  2  0  0  0  0
 15 10  2  0  0  0  0
 16 15  1  0  0  0  0
 17 18  2  0  0  0  0
 19 20  1  0  0  0  0
 19 17  1  0  0  0  0
 21 17  1  0  0  0  0
 21 22  1  0  0  0  0
 23 24  2  0  0  0  0
 24 25  1  0  0  0  0
 24 22  1  0  0  0  0
 26  1  1  0  0  0  0
 26 28  1  0  0  0  0
 27 26  2  0  0  0  0
M  END
>  <minimizedAffinity>
25.3916702

$$$$

 OpenBabel09122221093D

 28 29  0  0  0  0  0  0  0  0999 V2000
    2.2300   -2.1610    6.1650 C   0  0  0  0  0  0  0  0  0  0  0  0
    1.5780   -0.9950    5.9630 C   0  0  0  0  0  2  0  0  0  0  0  0
    0.6960   -0.6740    4.8370 C   0  0  0  0  0  0  0  0  0  0  0  0
    1.1800   -0.6530    3.5230 C   0  0  0  0  0  3  0  0  0  0  0  0
    0.3250   -0.3530    2.4610 C   0  0  0  0  0  3  0  0  0  0  0  0
   -1.0200   -0.0870    2.7120 C   0  0  0  0  0  0  0  0  0  0  0  0
   -1.5060   -0.0670    4.0220 C   0  0  0  0  0  3  0  0  0  0  0  0
   -0.6470   -0.3640    5.0810 C   0  0  0  0  0  3  0  0  0  0  0  0
   -1.8270    0.2000    1.6340 O   0  0  0  0  0  0  0  0  0  0  0  0
   -3.1880    0.1530    1.8550 C   0  0  0  0  0  0  0  0  0  0  0  0
   -3.7720   -0.9410    2.5080 C   0  0  0  0  0  3  0  0  0  0  0  0
   -5.1540   -0.9940    2.6950 C   0  0  0  0  0  3  0  0  0  0  0  0
   -5.9620    0.0370    2.2180 C   0  0  0  0  0  3  0  0  0  0  0  0
   -5.3900    1.1200    1.5470 C   0  0  0  0  0  3  0  0  0  0  0  0
   -4.0050    1.1750    1.3580 C   0  0  0  0  0  0  0  0  0  0  0  0
   -3.2180    2.8260    0.3380 I   0  0  0  0  0  0  0  0  0  0  0  0
    2.8600   -3.8700    4.4190 C   0  0  0  0  0  0  0  0  0  0  0  0
    2.5080   -4.9860    4.0150 O   0  0  0  0  0  0  0  0  0  0  0  0
    2.0360   -3.2430    5.3170 N   0  0  0  0  0  4  0  0  0  0  0  0
    1.1410   -3.7060    5.3680 H   0  0  0  0  0  0  0  0  0  0  0  0
    4.1410   -3.1960    3.9680 C   0  0  0  0  0  2  0  0  0  0  0  0
    5.3680   -4.0970    4.0960 C   0  0  0  0  0  2  0  0  0  0  0  0
    6.1320   -4.2760    6.3520 O   0  0  0  0  0  1  0  0  0  0  0  0
    6.3520   -3.7680    5.2190 C   0  0  0  0  0  0  0  0  0  0  0  0
    7.3280   -3.0420    4.8550 O   0  0  0  0  0  0  0  0  0  0  0  0
    3.0530   -2.1760    7.4960 C   0  0  0  0  0  0  0  0  0  0  0  0
    3.4030   -1.0340    7.9180 O   0  0  0  0  0  0  0  0  0  0  0  0
    3.3850   -3.3210    7.9240 O   0  0  0  0  0  1  0  0  0  0  0  0
  1 26  1  0  0  0  0
  2  1  1  0  0  0  0
  3  8  1  0  0  0  0
  3  2  1  0  0  0  0
  4  3  2  0  0  0  0
  5  6  2  0  0  0  0
  5  4  1  0  0  0  0
  6  7  1  0  0  0  0
  7  8  2  0  0  0  0
  9 10  1  0  0  0  0
  9  6  1  0  0  0  0
 10 11  1  0  0  0  0
 11 12  2  0  0  0  0
 13 12  1  0  0  0  0
 14 13  2  0  0  0  0
 15 14  1  0  0  0  0
 15 10  2  0  0  0  0
 16 15  1  0  0  0  0
 17 19  1  0  0  0  0
 18 17  2  0  0  0  0
 19 20  1  0  0  0  0
 19  1  2  0  0  0  0
 21 22  1  0  0  0  0
 21 17  1  0  0  0  0
 22 24  1  0  0  0  0
 24 23  1  0  0  0  0
 25 24  2  0  0  0  0
 26 27  2  0  0  0  0
 26 28  1  0  0  0  0
M  END
>  <minimizedAffinity>
25.7666607

$$$$
