
 OpenBabel09122222393D

 36 39  0  0  1  0  0  0  0  0999 V2000
    4.6430   -5.3550    2.5670 C   0  0  0  0  0  0  0  0  0  0  0  0
    5.4940   -4.3260    2.9760 C   0  0  0  0  0  3  0  0  0  0  0  0
    5.6100   -3.9820    4.3280 C   0  0  0  0  0  3  0  0  0  0  0  0
    4.8760   -4.6640    5.3010 C   0  0  0  0  0  0  0  0  0  0  0  0
    4.0440   -5.6840    4.8750 C   0  0  0  0  0  0  0  0  0  0  0  0
    3.9110   -6.0440    3.5250 C   0  0  0  0  0  3  0  0  0  0  0  0
    3.1320   -6.5400    6.0860 S   0  0  0  0  0  0  0  0  0  0  0  0
    1.7430   -6.2850    5.7790 O   0  0  0  0  0  0  0  0  0  0  0  0
    3.6550   -7.8880    6.0820 O   0  0  0  0  0  0  0  0  0  0  0  0
    3.5050   -5.8350    7.4610 N   0  0  0  0  0  0  0  0  0  0  0  0
    4.3500   -4.8460    7.5980 C   0  0  1  0  0  3  0  0  0  0  0  0
    5.0100   -4.2880    6.5970 N   0  0  0  0  0  0  0  0  0  0  0  0
    3.0420   -6.1970    8.2930 H   0  0  0  0  0  0  0  0  0  0  0  0
    5.6420   -3.5180    6.8390 H   0  0  0  0  0  0  0  0  0  0  0  0
    4.5900   -4.2780    8.9940 C   0  0  0  0  0  0  0  0  0  0  0  0
    5.7260   -4.4570    9.6950 C   0  0  0  0  0  0  0  0  0  0  0  0
    5.9260   -3.8240   11.0100 C   0  0  0  0  0  0  0  0  0  0  0  0
    7.1310   -3.8840   11.7280 C   0  0  0  0  0  3  0  0  0  0  0  0
    7.2420   -3.2640   12.9700 C   0  0  0  0  0  3  0  0  0  0  0  0
    6.1460   -2.5890   13.4600 C   0  0  0  0  0  3  0  0  0  0  0  0
    4.9830   -2.4870   12.7850 N   0  0  0  0  0  0  0  0  0  0  0  0
    4.8820   -3.0830   11.5780 C   0  0  0  0  0  0  0  0  0  0  0  0
    3.6740   -2.9250   10.8540 N   0  0  0  0  0  0  0  0  0  0  0  0
    3.4860   -3.4840    9.6130 C   0  0  0  0  0  0  0  0  0  0  0  0
    2.4430   -3.3750    8.9610 O   0  0  0  0  0  0  0  0  0  0  0  0
    6.7350   -5.2680    9.1850 O   0  0  0  0  0  0  0  0  0  0  0  0
    7.3040   -5.5720    9.9210 H   0  0  0  0  0  0  0  0  0  0  0  0
    2.5920   -2.1240   11.4450 C   0  0  0  0  0  2  0  0  0  0  0  0
    1.5300   -2.9730   12.1630 C   0  0  0  0  0  2  0  0  0  0  0  0
    1.1330   -2.4830   13.5680 C   0  0  0  0  0  3  0  0  0  0  0  0
    2.0050   -3.1720   14.6220 C   0  0  0  0  0  1  0  0  0  0  0  0
    1.2740   -0.9660   13.7060 C   0  0  0  0  0  1  0  0  0  0  0  0
    4.6240   -5.5780    1.2230 O   0  0  0  0  0  0  0  0  0  0  0  0
    4.5760   -6.9340    0.7730 C   0  0  0  0  0  2  0  0  0  0  0  0
    6.2420   -5.8020   -0.7650 C   0  0  0  0  0  1  0  0  0  0  0  0
    5.4680   -7.0770   -0.4590 C   0  0  0  0  0  2  0  0  0  0  0  0
  1  2  2  0  0  0  0
  1  6  1  0  0  0  0
  2  3  1  0  0  0  0
  3  4  2  0  0  0  0
  4 12  1  0  0  0  0
  5  4  1  0  0  0  0
  5  7  1  0  0  0  0
  6  5  2  0  0  0  0
  7 10  1  0  0  0  0
  8  7  2  0  0  0  0
  9  7  2  0  0  0  0
 10 11  1  0  0  0  0
 10 13  1  0  0  0  0
 11 15  1  6  0  0  0
 12 14  1  0  0  0  0
 12 11  1  0  0  0  0
 15 24  1  0  0  0  0
 15 16  2  0  0  0  0
 16 17  1  0  0  0  0
 17 22  2  0  0  0  0
 17 18  1  0  0  0  0
 18 19  2  0  0  0  0
 19 20  1  0  0  0  0
 21 20  2  0  0  0  0
 22 21  1  0  0  0  0
 23 28  1  0  0  0  0
 23 22  1  0  0  0  0
 24 23  1  0  0  0  0
 25 24  2  0  0  0  0
 26 16  1  0  0  0  0
 26 27  1  0  0  0  0
 28 29  1  0  0  0  0
 29 30  1  0  0  0  0
 30 32  1  0  0  0  0
 30 31  1  0  0  0  0
 33  1  1  0  0  0  0
 34 33  1  0  0  0  0
 35 36  1  0  0  0  0
 36 34  1  0  0  0  0
M  END
>  <minimizedAffinity>
-6.9059968

$$$$
