
 OpenBabel09122222393D

 36 39  0  0  1  0  0  0  0  0999 V2000
    4.1950   -4.0410    3.8130 C   0  0  0  0  0  0  0  0  0  0  0  0
    2.8300   -4.0040    4.1020 C   0  0  0  0  0  3  0  0  0  0  0  0
    2.3760   -3.7620    5.4050 C   0  0  0  0  0  3  0  0  0  0  0  0
    3.2830   -3.5500    6.4460 C   0  0  0  0  0  0  0  0  0  0  0  0
    4.6300   -3.5840    6.1350 C   0  0  0  0  0  0  0  0  0  0  0  0
    5.1070   -3.8270    4.8380 C   0  0  0  0  0  3  0  0  0  0  0  0
    5.7630   -3.3130    7.4290 S   0  0  0  0  0  0  0  0  0  0  0  0
    6.5210   -4.5380    7.5460 O   0  0  0  0  0  0  0  0  0  0  0  0
    6.4200   -2.0640    7.1130 O   0  0  0  0  0  0  0  0  0  0  0  0
    4.8680   -3.1220    8.7300 N   0  0  0  0  0  0  0  0  0  0  0  0
    3.5620   -3.1420    8.7570 C   0  0  1  0  0  3  0  0  0  0  0  0
    2.7980   -3.3330    7.6940 N   0  0  0  0  0  0  0  0  0  0  0  0
    5.3700   -2.9700    9.6030 H   0  0  0  0  0  0  0  0  0  0  0  0
    1.7860   -3.3270    7.8500 H   0  0  0  0  0  0  0  0  0  0  0  0
    2.8550   -2.9470   10.0960 C   0  0  0  0  0  0  0  0  0  0  0  0
    3.0200   -1.8690   10.8850 C   0  0  0  0  0  0  0  0  0  0  0  0
    2.2560   -1.7060   12.1340 C   0  0  0  0  0  0  0  0  0  0  0  0
    2.3050   -0.5520   12.9330 C   0  0  0  0  0  3  0  0  0  0  0  0
    1.5570   -0.4750   14.1050 C   0  0  0  0  0  3  0  0  0  0  0  0
    0.7680   -1.5510   14.4450 C   0  0  0  0  0  3  0  0  0  0  0  0
    0.6740   -2.6630   13.6880 N   0  0  0  0  0  0  0  0  0  0  0  0
    1.3950   -2.7320   12.5480 C   0  0  0  0  0  0  0  0  0  0  0  0
    1.2500   -3.8810   11.7330 N   0  0  0  0  0  0  0  0  0  0  0  0
    1.9320   -4.0320   10.5500 C   0  0  0  0  0  0  0  0  0  0  0  0
    1.8370   -5.0250    9.8230 O   0  0  0  0  0  0  0  0  0  0  0  0
    3.9400   -0.8870   10.5350 O   0  0  0  0  0  0  0  0  0  0  0  0
    4.1930   -0.3830   11.3350 H   0  0  0  0  0  0  0  0  0  0  0  0
    0.3250   -4.9420   12.1610 C   0  0  0  0  0  2  0  0  0  0  0  0
    0.9270   -5.8820   13.2180 C   0  0  0  0  0  2  0  0  0  0  0  0
    1.5890   -7.1580   12.6660 C   0  0  0  0  0  3  0  0  0  0  0  0
    1.7490   -8.1850   13.7910 C   0  0  0  0  0  1  0  0  0  0  0  0
    0.7770   -7.7770   11.5260 C   0  0  0  0  0  1  0  0  0  0  0  0
    4.4930   -4.2910    2.5070 O   0  0  0  0  0  0  0  0  0  0  0  0
    5.2440   -5.4710    2.2080 C   0  0  0  0  0  2  0  0  0  0  0  0
    5.9560   -6.0790   -0.1450 C   0  0  0  0  0  1  0  0  0  0  0  0
    4.8040   -6.0060    0.8480 C   0  0  0  0  0  2  0  0  0  0  0  0
  1  2  2  0  0  0  0
  1  6  1  0  0  0  0
  2  3  1  0  0  0  0
  3  4  2  0  0  0  0
  4 12  1  0  0  0  0
  5  4  1  0  0  0  0
  5  7  1  0  0  0  0
  6  5  2  0  0  0  0
  7  8  2  0  0  0  0
  7 10  1  0  0  0  0
  9  7  2  0  0  0  0
 10 11  1  0  0  0  0
 10 13  1  0  0  0  0
 11 15  1  1  0  0  0
 12 14  1  0  0  0  0
 12 11  1  0  0  0  0
 15 24  1  0  0  0  0
 15 16  2  0  0  0  0
 16 17  1  0  0  0  0
 17 22  2  0  0  0  0
 17 18  1  0  0  0  0
 18 19  2  0  0  0  0
 19 20  1  0  0  0  0
 21 20  2  0  0  0  0
 22 21  1  0  0  0  0
 23 28  1  0  0  0  0
 23 22  1  0  0  0  0
 24 23  1  0  0  0  0
 25 24  2  0  0  0  0
 26 16  1  0  0  0  0
 26 27  1  0  0  0  0
 28 29  1  0  0  0  0
 30 29  1  0  0  0  0
 30 31  1  0  0  0  0
 32 30  1  0  0  0  0
 33  1  1  0  0  0  0
 34 33  1  0  0  0  0
 35 36  1  0  0  0  0
 36 34  1  0  0  0  0
M  END
>  <minimizedAffinity>
-6.93850279

$$$$
