
 OpenBabel09122220403D

 36 39  0  0  1  0  0  0  0  0999 V2000
    2.7870   -1.3950    8.7400 C   0  0  0  0  0  0  0  0  0  0  0  0
    2.7990   -1.1300    7.3690 C   0  0  0  0  0  3  0  0  0  0  0  0
    2.8810   -2.1710    6.4360 C   0  0  0  0  0  3  0  0  0  0  0  0
    2.9500   -3.5010    6.8570 C   0  0  0  0  0  0  0  0  0  0  0  0
    2.9290   -3.7400    8.2190 C   0  0  0  0  0  0  0  0  0  0  0  0
    2.8500   -2.7130    9.1720 C   0  0  0  0  0  3  0  0  0  0  0  0
    3.0080   -5.3970    8.7490 S   0  0  0  0  0  0  0  0  0  0  0  0
    4.2370   -5.5070    9.5010 O   0  0  0  0  0  0  0  0  0  0  0  0
    1.7320   -5.6660    9.3730 O   0  0  0  0  0  0  0  0  0  0  0  0
    3.1310   -6.2530    7.4130 N   0  0  0  0  0  0  0  0  0  0  0  0
    3.1340   -5.7640    6.2010 C   0  0  1  0  0  3  0  0  0  0  0  0
    3.0410   -4.4750    5.9180 N   0  0  0  0  0  0  0  0  0  0  0  0
    3.2100   -7.2610    7.5310 H   0  0  0  0  0  0  0  0  0  0  0  0
    3.0570   -4.2220    4.9260 H   0  0  0  0  0  0  0  0  0  0  0  0
    3.2670   -6.7270    5.0250 C   0  0  0  0  0  0  0  0  0  0  0  0
    2.4840   -7.8080    4.8440 C   0  0  0  0  0  0  0  0  0  0  0  0
    2.6140   -8.6620    3.6500 C   0  0  0  0  0  0  0  0  0  0  0  0
    1.7510   -9.7300    3.3580 C   0  0  0  0  0  3  0  0  0  0  0  0
    1.9430  -10.4960    2.2110 C   0  0  0  0  0  3  0  0  0  0  0  0
    2.9890  -10.1680    1.3770 C   0  0  0  0  0  3  0  0  0  0  0  0
    3.8190   -9.1330    1.6120 N   0  0  0  0  0  0  0  0  0  0  0  0
    3.6260   -8.3870    2.7210 C   0  0  0  0  0  0  0  0  0  0  0  0
    4.4710   -7.2700    2.9310 N   0  0  0  0  0  0  0  0  0  0  0  0
    4.3410   -6.4470    4.0240 C   0  0  0  0  0  0  0  0  0  0  0  0
    5.0670   -5.4730    4.2430 O   0  0  0  0  0  0  0  0  0  0  0  0
    1.5370   -8.1470    5.8050 O   0  0  0  0  0  0  0  0  0  0  0  0
    1.3130   -9.0960    5.7140 H   0  0  0  0  0  0  0  0  0  0  0  0
    5.5150   -6.9730    1.9390 C   0  0  0  0  0  2  0  0  0  0  0  0
    5.1260   -5.8460    0.9670 C   0  0  0  0  0  2  0  0  0  0  0  0
    5.4550   -6.1080   -0.5140 C   0  0  0  0  0  3  0  0  0  0  0  0
    6.8230   -5.5090   -0.8540 C   0  0  0  0  0  1  0  0  0  0  0  0
    5.4600   -7.6030   -0.8430 C   0  0  0  0  0  1  0  0  0  0  0  0
    2.7100   -0.2890    9.5320 O   0  0  0  0  0  0  0  0  0  0  0  0
    3.4960   -0.2670   10.7260 C   0  0  0  0  0  2  0  0  0  0  0  0
    4.4330    2.0100   11.3190 C   0  0  0  0  0  1  0  0  0  0  0  0
    4.6470    0.7190   10.5410 C   0  0  0  0  0  2  0  0  0  0  0  0
  1  6  1  0  0  0  0
  1 33  1  0  0  0  0
  2  1  2  0  0  0  0
  3  4  2  0  0  0  0
  3  2  1  0  0  0  0
  4  5  1  0  0  0  0
  5  7  1  0  0  0  0
  5  6  2  0  0  0  0
  7  9  2  0  0  0  0
  7  8  2  0  0  0  0
 10 13  1  0  0  0  0
 10  7  1  0  0  0  0
 11 15  1  1  0  0  0
 11 10  1  0  0  0  0
 12 11  1  0  0  0  0
 12  4  1  0  0  0  0
 14 12  1  0  0  0  0
 16 15  2  0  0  0  0
 16 26  1  0  0  0  0
 17 16  1  0  0  0  0
 18 17  1  0  0  0  0
 19 18  2  0  0  0  0
 20 21  2  0  0  0  0
 20 19  1  0  0  0  0
 21 22  1  0  0  0  0
 22 23  1  0  0  0  0
 22 17  2  0  0  0  0
 23 24  1  0  0  0  0
 24 25  2  0  0  0  0
 24 15  1  0  0  0  0
 27 26  1  0  0  0  0
 28 23  1  0  0  0  0
 29 28  1  0  0  0  0
 30 29  1  0  0  0  0
 31 30  1  0  0  0  0
 32 30  1  0  0  0  0
 33 34  1  0  0  0  0
 36 34  1  0  0  0  0
 36 35  1  0  0  0  0
M  END
>  <minimizedAffinity>
-7.61328268

$$$$

 OpenBabel09122220403D

 36 39  0  0  1  0  0  0  0  0999 V2000
    4.0470   -4.0230    3.9730 C   0  0  0  0  0  0  0  0  0  0  0  0
    3.1570   -2.9690    4.1880 C   0  0  0  0  0  3  0  0  0  0  0  0
    2.9350   -2.4640    5.4750 C   0  0  0  0  0  3  0  0  0  0  0  0
    3.6040   -3.0050    6.5760 C   0  0  0  0  0  0  0  0  0  0  0  0
    4.4870   -4.0430    6.3390 C   0  0  0  0  0  0  0  0  0  0  0  0
    4.7220   -4.5650    5.0590 C   0  0  0  0  0  3  0  0  0  0  0  0
    5.3270   -4.7150    7.7080 S   0  0  0  0  0  0  0  0  0  0  0  0
    4.8940   -6.0910    7.7930 O   0  0  0  0  0  0  0  0  0  0  0  0
    6.7210   -4.3890    7.5040 O   0  0  0  0  0  0  0  0  0  0  0  0
    4.7780   -3.9110    8.9670 N   0  0  0  0  0  0  0  0  0  0  0  0
    3.9050   -2.9400    8.9190 C   0  0  1  0  0  3  0  0  0  0  0  0
    3.3470   -2.4930    7.8060 N   0  0  0  0  0  0  0  0  0  0  0  0
    5.1500   -4.1870    9.8740 H   0  0  0  0  0  0  0  0  0  0  0  0
    2.6750   -1.7270    7.9060 H   0  0  0  0  0  0  0  0  0  0  0  0
    3.4780   -2.2760   10.2260 C   0  0  0  0  0  0  0  0  0  0  0  0
    2.4030   -2.6500   10.9450 C   0  0  0  0  0  0  0  0  0  0  0  0
    2.0830   -2.0160   12.2360 C   0  0  0  0  0  0  0  0  0  0  0  0
    1.0430   -2.4440   13.0770 C   0  0  0  0  0  3  0  0  0  0  0  0
    0.7970   -1.7890   14.2810 C   0  0  0  0  0  3  0  0  0  0  0  0
    1.6060   -0.7270   14.6210 C   0  0  0  0  0  3  0  0  0  0  0  0
    2.6300   -0.3080   13.8510 N   0  0  0  0  0  0  0  0  0  0  0  0
    2.8700   -0.9490   12.6870 C   0  0  0  0  0  0  0  0  0  0  0  0
    3.9810   -0.5350   11.9120 N   0  0  0  0  0  0  0  0  0  0  0  0
    4.3100   -1.1370   10.7220 C   0  0  0  0  0  0  0  0  0  0  0  0
    5.2630   -0.7940   10.0170 O   0  0  0  0  0  0  0  0  0  0  0  0
    1.5580   -3.6440   10.4630 O   0  0  0  0  0  0  0  0  0  0  0  0
    0.6820   -3.5560   10.8910 H   0  0  0  0  0  0  0  0  0  0  0  0
    4.8180    0.5690   12.4060 C   0  0  0  0  0  2  0  0  0  0  0  0
    4.5410    1.9050   11.6980 C   0  0  0  0  0  2  0  0  0  0  0  0
    5.7590    2.8340   11.5400 C   0  0  0  0  0  3  0  0  0  0  0  0
    6.3090    3.2050   12.9210 C   0  0  0  0  0  1  0  0  0  0  0  0
    6.8690    2.1850   10.7100 C   0  0  0  0  0  1  0  0  0  0  0  0
    4.1610   -4.4150    2.6740 O   0  0  0  0  0  0  0  0  0  0  0  0
    5.2210   -5.3140    2.3390 C   0  0  0  0  0  2  0  0  0  0  0  0
    6.1220   -6.0960    0.1040 C   0  0  0  0  0  1  0  0  0  0  0  0
    4.8990   -5.9820    1.0040 C   0  0  0  0  0  2  0  0  0  0  0  0
  1  2  2  0  0  0  0
  1  6  1  0  0  0  0
  2  3  1  0  0  0  0
  3  4  2  0  0  0  0
  4 12  1  0  0  0  0
  5  4  1  0  0  0  0
  5  7  1  0  0  0  0
  6  5  2  0  0  0  0
  7  8  2  0  0  0  0
  7 10  1  0  0  0  0
  9  7  2  0  0  0  0
 10 13  1  0  0  0  0
 11 10  1  0  0  0  0
 11 15  1  1  0  0  0
 12 14  1  0  0  0  0
 12 11  1  0  0  0  0
 15 24  1  0  0  0  0
 15 16  2  0  0  0  0
 16 17  1  0  0  0  0
 17 22  2  0  0  0  0
 17 18  1  0  0  0  0
 18 19  2  0  0  0  0
 19 20  1  0  0  0  0
 21 20  2  0  0  0  0
 22 21  1  0  0  0  0
 23 28  1  0  0  0  0
 23 22  1  0  0  0  0
 24 23  1  0  0  0  0
 25 24  2  0  0  0  0
 26 27  1  0  0  0  0
 26 16  1  0  0  0  0
 29 28  1  0  0  0  0
 30 29  1  0  0  0  0
 30 31  1  0  0  0  0
 32 30  1  0  0  0  0
 33  1  1  0  0  0  0
 34 33  1  0  0  0  0
 35 36  1  0  0  0  0
 36 34  1  0  0  0  0
M  END
>  <minimizedAffinity>
-7.53575134

$$$$

 OpenBabel09122220403D

 36 39  0  0  1  0  0  0  0  0999 V2000
    2.6020   -1.5210    8.4900 C   0  0  0  0  0  0  0  0  0  0  0  0
    2.3330   -1.1060    7.1840 C   0  0  0  0  0  3  0  0  0  0  0  0
    2.5590   -1.9590    6.0960 C   0  0  0  0  0  3  0  0  0  0  0  0
    3.0560   -3.2490    6.2950 C   0  0  0  0  0  0  0  0  0  0  0  0
    3.3070   -3.6420    7.5970 C   0  0  0  0  0  0  0  0  0  0  0  0
    3.0920   -2.8040    8.7010 C   0  0  0  0  0  3  0  0  0  0  0  0
    3.9210   -5.2520    7.8490 S   0  0  0  0  0  0  0  0  0  0  0  0
    5.2310   -5.0810    8.4350 O   0  0  0  0  0  0  0  0  0  0  0  0
    2.8780   -5.9570    8.5600 O   0  0  0  0  0  0  0  0  0  0  0  0
    4.0740   -5.8700    6.3910 N   0  0  0  0  0  0  0  0  0  0  0  0
    3.7580   -5.2630    5.2770 C   0  0  1  0  0  3  0  0  0  0  0  0
    3.2700   -4.0350    5.2100 N   0  0  0  0  0  0  0  0  0  0  0  0
    4.4450   -6.8170    6.3400 H   0  0  0  0  0  0  0  0  0  0  0  0
    3.0660   -3.6740    4.2740 H   0  0  0  0  0  0  0  0  0  0  0  0
    3.9730   -5.9990    3.9570 C   0  0  0  0  0  0  0  0  0  0  0  0
    4.5070   -5.4340    2.8580 C   0  0  0  0  0  0  0  0  0  0  0  0
    4.7550   -6.2160    1.6340 C   0  0  0  0  0  0  0  0  0  0  0  0
    5.4120   -5.7050    0.5030 C   0  0  0  0  0  3  0  0  0  0  0  0
    5.6040   -6.5060   -0.6200 C   0  0  0  0  0  3  0  0  0  0  0  0
    5.1430   -7.8030   -0.5810 C   0  0  0  0  0  3  0  0  0  0  0  0
    4.5330   -8.3340    0.4970 N   0  0  0  0  0  0  0  0  0  0  0  0
    4.3550   -7.5580    1.5880 C   0  0  0  0  0  0  0  0  0  0  0  0
    3.7610   -8.1410    2.7340 N   0  0  0  0  0  0  0  0  0  0  0  0
    3.5530   -7.4320    3.8930 C   0  0  0  0  0  0  0  0  0  0  0  0
    3.0280   -7.9060    4.9050 O   0  0  0  0  0  0  0  0  0  0  0  0
    4.8230   -4.0790    2.8580 O   0  0  0  0  0  0  0  0  0  0  0  0
    4.8600   -3.7590    1.9340 H   0  0  0  0  0  0  0  0  0  0  0  0
    3.3670   -9.5570    2.6870 C   0  0  0  0  0  2  0  0  0  0  0  0
    4.5260  -10.5200    2.9910 C   0  0  0  0  0  2  0  0  0  0  0  0
    4.4010  -11.3100    4.3070 C   0  0  0  0  0  3  0  0  0  0  0  0
    5.2670  -10.6540    5.3870 C   0  0  0  0  0  1  0  0  0  0  0  0
    2.9520  -11.3840    4.7940 C   0  0  0  0  0  1  0  0  0  0  0  0
    2.3420   -0.5890    9.4480 O   0  0  0  0  0  0  0  0  0  0  0  0
    3.1910   -0.5590   10.5980 C   0  0  0  0  0  2  0  0  0  0  0  0
    4.3430    1.6470   11.0660 C   0  0  0  0  0  1  0  0  0  0  0  0
    4.3950    0.3320   10.3010 C   0  0  0  0  0  2  0  0  0  0  0  0
  1  6  1  0  0  0  0
  1 33  1  0  0  0  0
  2  1  2  0  0  0  0
  3  4  2  0  0  0  0
  3  2  1  0  0  0  0
  4  5  1  0  0  0  0
  5  7  1  0  0  0  0
  5  6  2  0  0  0  0
  7  8  2  0  0  0  0
  7  9  2  0  0  0  0
 10  7  1  0  0  0  0
 11 15  1  6  0  0  0
 11 10  1  0  0  0  0
 12 11  1  0  0  0  0
 12  4  1  0  0  0  0
 13 10  1  0  0  0  0
 14 12  1  0  0  0  0
 16 15  2  0  0  0  0
 17 16  1  0  0  0  0
 18 17  2  0  0  0  0
 19 20  2  0  0  0  0
 19 18  1  0  0  0  0
 20 21  1  0  0  0  0
 21 22  2  0  0  0  0
 22 17  1  0  0  0  0
 22 23  1  0  0  0  0
 23 24  1  0  0  0  0
 24 15  1  0  0  0  0
 24 25  2  0  0  0  0
 26 16  1  0  0  0  0
 27 26  1  0  0  0  0
 28 23  1  0  0  0  0
 28 29  1  0  0  0  0
 29 30  1  0  0  0  0
 30 32  1  0  0  0  0
 30 31  1  0  0  0  0
 33 34  1  0  0  0  0
 36 34  1  0  0  0  0
 36 35  1  0  0  0  0
M  END
>  <minimizedAffinity>
-7.43082666

$$$$

 OpenBabel09122220403D

 36 39  0  0  1  0  0  0  0  0999 V2000
    3.7150   -0.5700    8.8300 C   0  0  0  0  0  0  0  0  0  0  0  0
    2.5700   -1.0020    8.1570 C   0  0  0  0  0  3  0  0  0  0  0  0
    2.6530   -1.9470    7.1270 C   0  0  0  0  0  3  0  0  0  0  0  0
    3.8880   -2.4820    6.7510 C   0  0  0  0  0  0  0  0  0  0  0  0
    5.0070   -2.0460    7.4360 C   0  0  0  0  0  0  0  0  0  0  0  0
    4.9480   -1.0990    8.4690 C   0  0  0  0  0  3  0  0  0  0  0  0
    6.5470   -2.7160    6.9730 S   0  0  0  0  0  0  0  0  0  0  0  0
    7.3260   -1.6000    6.4870 O   0  0  0  0  0  0  0  0  0  0  0  0
    6.9910   -3.4870    8.1130 O   0  0  0  0  0  0  0  0  0  0  0  0
    6.2250   -3.7000    5.7660 N   0  0  0  0  0  0  0  0  0  0  0  0
    5.0330   -3.9400    5.2850 C   0  0  1  0  0  3  0  0  0  0  0  0
    3.9210   -3.3850    5.7390 N   0  0  0  0  0  0  0  0  0  0  0  0
    7.0220   -4.1740    5.3470 H   0  0  0  0  0  0  0  0  0  0  0  0
    3.0510   -3.6570    5.2730 H   0  0  0  0  0  0  0  0  0  0  0  0
    4.8990   -4.9110    4.1150 C   0  0  0  0  0  0  0  0  0  0  0  0
    5.4920   -4.7350    2.9190 C   0  0  0  0  0  0  0  0  0  0  0  0
    5.3830   -5.7430    1.8500 C   0  0  0  0  0  0  0  0  0  0  0  0
    6.0730   -5.6630    0.6300 C   0  0  0  0  0  3  0  0  0  0  0  0
    5.9120   -6.6550   -0.3350 C   0  0  0  0  0  3  0  0  0  0  0  0
    5.0720   -7.7090   -0.0520 C   0  0  0  0  0  3  0  0  0  0  0  0
    4.4160   -7.8310    1.1190 N   0  0  0  0  0  0  0  0  0  0  0  0
    4.5790   -6.8730    2.0560 C   0  0  0  0  0  0  0  0  0  0  0  0
    3.9280   -7.0380    3.3030 N   0  0  0  0  0  0  0  0  0  0  0  0
    4.0470   -6.1210    4.3200 C   0  0  0  0  0  0  0  0  0  0  0  0
    3.4840   -6.2290    5.4130 O   0  0  0  0  0  0  0  0  0  0  0  0
    6.2160   -3.5740    2.6670 O   0  0  0  0  0  0  0  0  0  0  0  0
    6.2760   -3.4370    1.7000 H   0  0  0  0  0  0  0  0  0  0  0  0
    3.1070   -8.2390    3.5210 C   0  0  0  0  0  2  0  0  0  0  0  0
    3.8780   -9.3870    4.1940 C   0  0  0  0  0  2  0  0  0  0  0  0
    3.6300  -10.7850    3.5990 C   0  0  0  0  0  3  0  0  0  0  0  0
    2.5880  -10.6940    2.4800 C   0  0  0  0  0  1  0  0  0  0  0  0
    4.9150  -11.4070    3.0470 C   0  0  0  0  0  1  0  0  0  0  0  0
    3.4880    0.3550    9.8040 O   0  0  0  0  0  0  0  0  0  0  0  0
    4.5330    0.5990   10.7490 C   0  0  0  0  0  2  0  0  0  0  0  0
    5.6720    2.4810   12.0040 C   0  0  0  0  0  1  0  0  0  0  0  0
    4.4360    2.0460   11.2290 C   0  0  0  0  0  2  0  0  0  0  0  0
  1 33  1  0  0  0  0
  2  1  2  0  0  0  0
  3  2  1  0  0  0  0
  4  3  2  0  0  0  0
  4  5  1  0  0  0  0
  5  6  2  0  0  0  0
  6  1  1  0  0  0  0
  7  5  1  0  0  0  0
  7  9  2  0  0  0  0
  8  7  2  0  0  0  0
 10  7  1  0  0  0  0
 11 15  1  6  0  0  0
 11 12  1  0  0  0  0
 11 10  1  0  0  0  0
 12  4  1  0  0  0  0
 13 10  1  0  0  0  0
 14 12  1  0  0  0  0
 15 24  1  0  0  0  0
 16 15  2  0  0  0  0
 17 22  1  0  0  0  0
 17 16  1  0  0  0  0
 18 17  2  0  0  0  0
 19 20  2  0  0  0  0
 19 18  1  0  0  0  0
 20 21  1  0  0  0  0
 21 22  2  0  0  0  0
 22 23  1  0  0  0  0
 23 28  1  0  0  0  0
 23 24  1  0  0  0  0
 24 25  2  0  0  0  0
 26 16  1  0  0  0  0
 27 26  1  0  0  0  0
 28 29  1  0  0  0  0
 30 29  1  0  0  0  0
 31 30  1  0  0  0  0
 32 30  1  0  0  0  0
 33 34  1  0  0  0  0
 34 36  1  0  0  0  0
 36 35  1  0  0  0  0
M  END
>  <minimizedAffinity>
-7.40517998

$$$$

 OpenBabel09122220403D

 36 39  0  0  1  0  0  0  0  0999 V2000
    2.5010   -2.6010   10.5710 C   0  0  0  0  0  0  0  0  0  0  0  0
    2.4420   -3.9790   10.7860 C   0  0  0  0  0  3  0  0  0  0  0  0
    2.5910   -4.8810    9.7250 C   0  0  0  0  0  3  0  0  0  0  0  0
    2.8050   -4.4190    8.4240 C   0  0  0  0  0  0  0  0  0  0  0  0
    2.8680   -3.0510    8.2350 C   0  0  0  0  0  0  0  0  0  0  0  0
    2.7190   -2.1290    9.2830 C   0  0  0  0  0  3  0  0  0  0  0  0
    3.1400   -2.4710    6.6150 S   0  0  0  0  0  0  0  0  0  0  0  0
    1.9580   -1.7160    6.2680 O   0  0  0  0  0  0  0  0  0  0  0  0
    4.4400   -1.8390    6.6450 O   0  0  0  0  0  0  0  0  0  0  0  0
    3.2120   -3.7800    5.7140 N   0  0  0  0  0  0  0  0  0  0  0  0
    3.1130   -5.0070    6.1550 C   0  0  1  0  0  3  0  0  0  0  0  0
    2.9310   -5.3290    7.4250 N   0  0  0  0  0  0  0  0  0  0  0  0
    3.3500   -3.6320    4.7160 H   0  0  0  0  0  0  0  0  0  0  0  0
    2.8680   -6.3280    7.6390 H   0  0  0  0  0  0  0  0  0  0  0  0
    3.1980   -6.1540    5.1520 C   0  0  0  0  0  0  0  0  0  0  0  0
    2.3560   -7.2040    5.1350 C   0  0  0  0  0  0  0  0  0  0  0  0
    2.4440   -8.2450    4.0970 C   0  0  0  0  0  0  0  0  0  0  0  0
    1.5230   -9.2970    3.9670 C   0  0  0  0  0  3  0  0  0  0  0  0
    1.6780  -10.2480    2.9620 C   0  0  0  0  0  3  0  0  0  0  0  0
    2.7460  -10.1180    2.1020 C   0  0  0  0  0  3  0  0  0  0  0  0
    3.6330   -9.1060    2.1800 N   0  0  0  0  0  0  0  0  0  0  0  0
    3.4770   -8.1810    3.1510 C   0  0  0  0  0  0  0  0  0  0  0  0
    4.3830   -7.0930    3.1920 N   0  0  0  0  0  0  0  0  0  0  0  0
    4.2930   -6.0980    4.1350 C   0  0  0  0  0  0  0  0  0  0  0  0
    5.0720   -5.1440    4.2060 O   0  0  0  0  0  0  0  0  0  0  0  0
    1.3850   -7.3300    6.1240 O   0  0  0  0  0  0  0  0  0  0  0  0
    1.1080   -8.2670    6.1830 H   0  0  0  0  0  0  0  0  0  0  0  0
    5.4470   -7.0190    2.1800 C   0  0  0  0  0  2  0  0  0  0  0  0
    5.2530   -5.8700    1.1770 C   0  0  0  0  0  2  0  0  0  0  0  0
    5.3690   -6.2640   -0.3080 C   0  0  0  0  0  3  0  0  0  0  0  0
    6.6310   -5.6410   -0.9110 C   0  0  0  0  0  1  0  0  0  0  0  0
    5.4120   -7.7820   -0.4950 C   0  0  0  0  0  1  0  0  0  0  0  0
    2.3350   -1.8430   11.6900 O   0  0  0  0  0  0  0  0  0  0  0  0
    2.1300   -2.5220   12.9310 C   0  0  0  0  0  2  0  0  0  0  0  0
    1.2280   -0.3700   13.9170 C   0  0  0  0  0  1  0  0  0  0  0  0
    0.9780   -1.8520   13.6770 C   0  0  0  0  0  2  0  0  0  0  0  0
  1  2  1  0  0  0  0
  1 33  1  0  0  0  0
  3  2  2  0  0  0  0
  4  3  1  0  0  0  0
  5  4  2  0  0  0  0
  5  6  1  0  0  0  0
  6  1  2  0  0  0  0
  7  9  2  0  0  0  0
  7  5  1  0  0  0  0
  8  7  2  0  0  0  0
 10 11  1  0  0  0  0
 10  7  1  0  0  0  0
 11 15  1  6  0  0  0
 11 12  1  0  0  0  0
 12 14  1  0  0  0  0
 12  4  1  0  0  0  0
 13 10  1  0  0  0  0
 16 15  2  0  0  0  0
 16 26  1  0  0  0  0
 17 16  1  0  0  0  0
 18 17  1  0  0  0  0
 19 18  2  0  0  0  0
 20 21  2  0  0  0  0
 20 19  1  0  0  0  0
 21 22  1  0  0  0  0
 22 23  1  0  0  0  0
 22 17  2  0  0  0  0
 23 24  1  0  0  0  0
 24 25  2  0  0  0  0
 24 15  1  0  0  0  0
 26 27  1  0  0  0  0
 28 23  1  0  0  0  0
 29 28  1  0  0  0  0
 30 29  1  0  0  0  0
 31 30  1  0  0  0  0
 32 30  1  0  0  0  0
 33 34  1  0  0  0  0
 34 36  1  0  0  0  0
 36 35  1  0  0  0  0
M  END
>  <minimizedAffinity>
-7.31825399

$$$$

 OpenBabel09122220403D

 36 39  0  0  1  0  0  0  0  0999 V2000
    5.6520   -0.4100    8.8850 C   0  0  0  0  0  0  0  0  0  0  0  0
    6.7470   -0.7930    8.1060 C   0  0  0  0  0  3  0  0  0  0  0  0
    6.6030   -1.7200    7.0670 C   0  0  0  0  0  3  0  0  0  0  0  0
    5.3560   -2.2830    6.7840 C   0  0  0  0  0  0  0  0  0  0  0  0
    4.2850   -1.8850    7.5630 C   0  0  0  0  0  0  0  0  0  0  0  0
    4.4070   -0.9590    8.6100 C   0  0  0  0  0  3  0  0  0  0  0  0
    2.7270   -2.5800    7.2090 S   0  0  0  0  0  0  0  0  0  0  0  0
    2.3550   -3.3210    8.3920 O   0  0  0  0  0  0  0  0  0  0  0  0
    1.9130   -1.4830    6.7350 O   0  0  0  0  0  0  0  0  0  0  0  0
    2.9900   -3.5950    6.0130 N   0  0  0  0  0  0  0  0  0  0  0  0
    4.1450   -3.8000    5.4360 C   0  0  1  0  0  3  0  0  0  0  0  0
    5.2670   -3.1870    5.7770 N   0  0  0  0  0  0  0  0  0  0  0  0
    2.1810   -4.1180    5.6810 H   0  0  0  0  0  0  0  0  0  0  0  0
    6.1050   -3.4390    5.2460 H   0  0  0  0  0  0  0  0  0  0  0  0
    4.2250   -4.8180    4.3020 C   0  0  0  0  0  0  0  0  0  0  0  0
    4.4040   -4.4920    3.0080 C   0  0  0  0  0  0  0  0  0  0  0  0
    4.5440   -5.5250    1.9660 C   0  0  0  0  0  0  0  0  0  0  0  0
    4.8460   -5.2420    0.6240 C   0  0  0  0  0  3  0  0  0  0  0  0
    4.9560   -6.2740   -0.3040 C   0  0  0  0  0  3  0  0  0  0  0  0
    4.7720   -7.5660    0.1340 C   0  0  0  0  0  3  0  0  0  0  0  0
    4.5090   -7.8760    1.4200 N   0  0  0  0  0  0  0  0  0  0  0  0
    4.4100   -6.8740    2.3190 C   0  0  0  0  0  0  0  0  0  0  0  0
    4.1870   -7.2130    3.6760 N   0  0  0  0  0  0  0  0  0  0  0  0
    4.0860   -6.2620    4.6630 C   0  0  0  0  0  0  0  0  0  0  0  0
    3.8800   -6.5220    5.8510 O   0  0  0  0  0  0  0  0  0  0  0  0
    4.4450   -3.1540    2.6290 O   0  0  0  0  0  0  0  0  0  0  0  0
    4.2300   -3.0840    1.6770 H   0  0  0  0  0  0  0  0  0  0  0  0
    4.0740   -8.6320    4.0430 C   0  0  0  0  0  2  0  0  0  0  0  0
    2.6500   -9.1900    3.8820 C   0  0  0  0  0  2  0  0  0  0  0  0
    2.5560  -10.5800    3.2250 C   0  0  0  0  0  3  0  0  0  0  0  0
    2.0390  -10.4400    1.7900 C   0  0  0  0  0  1  0  0  0  0  0  0
    3.9070  -11.2980    3.2100 C   0  0  0  0  0  1  0  0  0  0  0  0
    5.9380    0.4940    9.8620 O   0  0  0  0  0  0  0  0  0  0  0  0
    5.0190    0.6120   10.9510 C   0  0  0  0  0  2  0  0  0  0  0  0
    5.6050    2.7580   12.1620 C   0  0  0  0  0  1  0  0  0  0  0  0
    4.6810    2.0870   11.1550 C   0  0  0  0  0  2  0  0  0  0  0  0
  1 33  1  0  0  0  0
  2  1  2  0  0  0  0
  3  2  1  0  0  0  0
  4  3  2  0  0  0  0
  4  5  1  0  0  0  0
  5  6  2  0  0  0  0
  6  1  1  0  0  0  0
  7  5  1  0  0  0  0
  7  8  2  0  0  0  0
  9  7  2  0  0  0  0
 10  7  1  0  0  0  0
 11 15  1  1  0  0  0
 11 12  1  0  0  0  0
 11 10  1  0  0  0  0
 12  4  1  0  0  0  0
 13 10  1  0  0  0  0
 14 12  1  0  0  0  0
 15 24  1  0  0  0  0
 16 15  2  0  0  0  0
 17 22  1  0  0  0  0
 17 16  1  0  0  0  0
 18 17  2  0  0  0  0
 19 20  2  0  0  0  0
 19 18  1  0  0  0  0
 20 21  1  0  0  0  0
 21 22  2  0  0  0  0
 22 23  1  0  0  0  0
 23 28  1  0  0  0  0
 23 24  1  0  0  0  0
 24 25  2  0  0  0  0
 26 16  1  0  0  0  0
 27 26  1  0  0  0  0
 29 28  1  0  0  0  0
 30 29  1  0  0  0  0
 31 30  1  0  0  0  0
 32 30  1  0  0  0  0
 33 34  1  0  0  0  0
 34 36  1  0  0  0  0
 36 35  1  0  0  0  0
M  END
>  <minimizedAffinity>
-7.3116889

$$$$

 OpenBabel09122220403D

 36 39  0  0  1  0  0  0  0  0999 V2000
    2.2500   -3.1690    9.4530 C   0  0  0  0  0  0  0  0  0  0  0  0
    2.1860   -4.5330    9.7450 C   0  0  0  0  0  3  0  0  0  0  0  0
    2.4040   -5.4930    8.7490 C   0  0  0  0  0  3  0  0  0  0  0  0
    2.6940   -5.1060    7.4390 C   0  0  0  0  0  0  0  0  0  0  0  0
    2.7600   -3.7500    7.1740 C   0  0  0  0  0  0  0  0  0  0  0  0
    2.5420   -2.7710    8.1550 C   0  0  0  0  0  3  0  0  0  0  0  0
    3.1280   -3.2640    5.5430 S   0  0  0  0  0  0  0  0  0  0  0  0
    1.9650   -2.5420    5.0810 O   0  0  0  0  0  0  0  0  0  0  0  0
    4.4200   -2.6190    5.6140 O   0  0  0  0  0  0  0  0  0  0  0  0
    3.2620   -4.6220    4.7260 N   0  0  0  0  0  0  0  0  0  0  0  0
    3.1440   -5.8220    5.2320 C   0  0  1  0  0  3  0  0  0  0  0  0
    2.8860   -6.0710    6.5050 N   0  0  0  0  0  0  0  0  0  0  0  0
    3.4600   -4.5310    3.7310 H   0  0  0  0  0  0  0  0  0  0  0  0
    2.8160   -7.0570    6.7730 H   0  0  0  0  0  0  0  0  0  0  0  0
    3.2960   -7.0240    4.3040 C   0  0  0  0  0  0  0  0  0  0  0  0
    2.4260   -8.0500    4.2520 C   0  0  0  0  0  0  0  0  0  0  0  0
    2.5890   -9.1500    3.2840 C   0  0  0  0  0  0  0  0  0  0  0  0
    1.6520  -10.1810    3.1120 C   0  0  0  0  0  3  0  0  0  0  0  0
    1.8810  -11.1900    2.1790 C   0  0  0  0  0  3  0  0  0  0  0  0
    3.0380  -11.1380    1.4340 C   0  0  0  0  0  3  0  0  0  0  0  0
    3.9450  -10.1470    1.5540 N   0  0  0  0  0  0  0  0  0  0  0  0
    3.7170   -9.1660    2.4530 C   0  0  0  0  0  0  0  0  0  0  0  0
    4.6500   -8.1030    2.5340 N   0  0  0  0  0  0  0  0  0  0  0  0
    4.4930   -7.0560    3.4100 C   0  0  0  0  0  0  0  0  0  0  0  0
    5.2920   -6.1200    3.5140 O   0  0  0  0  0  0  0  0  0  0  0  0
    1.3530   -8.0950    5.1360 O   0  0  0  0  0  0  0  0  0  0  0  0
    1.0400   -9.0190    5.2130 H   0  0  0  0  0  0  0  0  0  0  0  0
    5.8170   -8.1140    1.6400 C   0  0  0  0  0  2  0  0  0  0  0  0
    5.4690   -7.7760    0.1810 C   0  0  0  0  0  2  0  0  0  0  0  0
    5.8170   -6.3440   -0.2660 C   0  0  0  0  0  3  0  0  0  0  0  0
    4.6260   -5.4170   -0.0020 C   0  0  0  0  0  1  0  0  0  0  0  0
    7.0520   -5.8030    0.4580 C   0  0  0  0  0  1  0  0  0  0  0  0
    2.0110   -2.3490   10.5140 O   0  0  0  0  0  0  0  0  0  0  0  0
    2.9800   -2.3170   11.5640 C   0  0  0  0  0  2  0  0  0  0  0  0
    3.8460   -0.0270   10.9150 C   0  0  0  0  0  1  0  0  0  0  0  0
    3.1900   -0.8690   12.0010 C   0  0  0  0  0  2  0  0  0  0  0  0
  1  2  1  0  0  0  0
  1 33  1  0  0  0  0
  3  2  2  0  0  0  0
  4  3  1  0  0  0  0
  5  4  2  0  0  0  0
  5  6  1  0  0  0  0
  6  1  2  0  0  0  0
  7  9  2  0  0  0  0
  7  5  1  0  0  0  0
  8  7  2  0  0  0  0
 10 11  1  0  0  0  0
 10  7  1  0  0  0  0
 11 15  1  6  0  0  0
 11 12  1  0  0  0  0
 12 14  1  0  0  0  0
 12  4  1  0  0  0  0
 13 10  1  0  0  0  0
 16 15  2  0  0  0  0
 16 26  1  0  0  0  0
 17 16  1  0  0  0  0
 18 17  1  0  0  0  0
 19 18  2  0  0  0  0
 20 21  2  0  0  0  0
 20 19  1  0  0  0  0
 21 22  1  0  0  0  0
 22 23  1  0  0  0  0
 22 17  2  0  0  0  0
 23 24  1  0  0  0  0
 24 25  2  0  0  0  0
 24 15  1  0  0  0  0
 26 27  1  0  0  0  0
 28 23  1  0  0  0  0
 29 28  1  0  0  0  0
 30 31  1  0  0  0  0
 30 29  1  0  0  0  0
 30 32  1  0  0  0  0
 33 34  1  0  0  0  0
 34 36  1  0  0  0  0
 35 36  1  0  0  0  0
M  END
>  <minimizedAffinity>
-7.12865257

$$$$

 OpenBabel09122220403D

 36 39  0  0  1  0  0  0  0  0999 V2000
    5.3240   -7.4470    1.9180 C   0  0  0  0  0  0  0  0  0  0  0  0
    4.5600   -8.6070    2.0700 C   0  0  0  0  0  3  0  0  0  0  0  0
    3.5360   -8.6750    3.0220 C   0  0  0  0  0  3  0  0  0  0  0  0
    3.2540   -7.5800    3.8430 C   0  0  0  0  0  0  0  0  0  0  0  0
    4.0170   -6.4400    3.6700 C   0  0  0  0  0  0  0  0  0  0  0  0
    5.0490   -6.3510    2.7240 C   0  0  0  0  0  3  0  0  0  0  0  0
    3.6640   -5.0710    4.6870 S   0  0  0  0  0  0  0  0  0  0  0  0
    4.8570   -4.8520    5.4730 O   0  0  0  0  0  0  0  0  0  0  0  0
    3.1650   -4.0470    3.7970 O   0  0  0  0  0  0  0  0  0  0  0  0
    2.4870   -5.5570    5.6410 N   0  0  0  0  0  0  0  0  0  0  0  0
    1.9220   -6.7350    5.6030 C   0  0  1  0  0  3  0  0  0  0  0  0
    2.2610   -7.6970    4.7600 N   0  0  0  0  0  0  0  0  0  0  0  0
    2.1580   -4.8820    6.3290 H   0  0  0  0  0  0  0  0  0  0  0  0
    1.7410   -8.5760    4.8350 H   0  0  0  0  0  0  0  0  0  0  0  0
    0.8060   -7.0430    6.5980 C   0  0  0  0  0  0  0  0  0  0  0  0
   -0.4540   -7.3550    6.2430 C   0  0  0  0  0  0  0  0  0  0  0  0
   -1.4710   -7.7110    7.2480 C   0  0  0  0  0  0  0  0  0  0  0  0
   -2.7640   -8.1530    6.9250 C   0  0  0  0  0  3  0  0  0  0  0  0
   -3.6730   -8.4660    7.9330 C   0  0  0  0  0  3  0  0  0  0  0  0
   -3.2620   -8.3390    9.2420 C   0  0  0  0  0  3  0  0  0  0  0  0
   -2.0200   -7.9450    9.5870 N   0  0  0  0  0  0  0  0  0  0  0  0
   -1.1390   -7.6490    8.6070 C   0  0  0  0  0  0  0  0  0  0  0  0
    0.1790   -7.2870    8.9800 N   0  0  0  0  0  0  0  0  0  0  0  0
    1.1460   -6.9830    8.0520 C   0  0  0  0  0  0  0  0  0  0  0  0
    2.2990   -6.6530    8.3430 O   0  0  0  0  0  0  0  0  0  0  0  0
   -0.8240   -7.3280    4.9020 O   0  0  0  0  0  0  0  0  0  0  0  0
   -1.7960   -7.2290    4.8390 H   0  0  0  0  0  0  0  0  0  0  0  0
    0.5280   -7.2500   10.4080 C   0  0  0  0  0  2  0  0  0  0  0  0
    0.4430   -5.8410   11.0170 C   0  0  0  0  0  2  0  0  0  0  0  0
    1.4280   -5.5590   12.1680 C   0  0  0  0  0  3  0  0  0  0  0  0
    2.8600   -5.5210   11.6240 C   0  0  0  0  0  1  0  0  0  0  0  0
    1.1180   -4.2390   12.8760 C   0  0  0  0  0  1  0  0  0  0  0  0
    6.2880   -7.5230    0.9590 O   0  0  0  0  0  0  0  0  0  0  0  0
    5.9090   -7.2460   -0.3920 C   0  0  0  0  0  2  0  0  0  0  0  0
    7.6580   -5.4430   -0.0620 C   0  0  0  0  0  1  0  0  0  0  0  0
    6.3560   -5.8310   -0.7500 C   0  0  0  0  0  2  0  0  0  0  0  0
  1  2  2  0  0  0  0
  1  6  1  0  0  0  0
  2  3  1  0  0  0  0
  3  4  2  0  0  0  0
  4 12  1  0  0  0  0
  5  4  1  0  0  0  0
  5  7  1  0  0  0  0
  6  5  2  0  0  0  0
  7  8  2  0  0  0  0
  7 10  1  0  0  0  0
  9  7  2  0  0  0  0
 10 13  1  0  0  0  0
 11 10  1  0  0  0  0
 11 15  1  1  0  0  0
 12 14  1  0  0  0  0
 12 11  1  0  0  0  0
 15 24  1  0  0  0  0
 16 15  2  0  0  0  0
 16 17  1  0  0  0  0
 17 22  1  0  0  0  0
 18 17  2  0  0  0  0
 18 19  1  0  0  0  0
 19 20  2  0  0  0  0
 20 21  1  0  0  0  0
 22 23  1  0  0  0  0
 22 21  2  0  0  0  0
 23 28  1  0  0  0  0
 24 25  2  0  0  0  0
 24 23  1  0  0  0  0
 26 16  1  0  0  0  0
 27 26  1  0  0  0  0
 28 29  1  0  0  0  0
 29 30  1  0  0  0  0
 30 32  1  0  0  0  0
 31 30  1  0  0  0  0
 33  1  1  0  0  0  0
 34 33  1  0  0  0  0
 36 34  1  0  0  0  0
 36 35  1  0  0  0  0
M  END
>  <minimizedAffinity>
-6.94938517

$$$$

 OpenBabel09122220403D

 36 39  0  0  1  0  0  0  0  0999 V2000
    4.1950   -4.0410    3.8130 C   0  0  0  0  0  0  0  0  0  0  0  0
    2.8300   -4.0040    4.1020 C   0  0  0  0  0  3  0  0  0  0  0  0
    2.3760   -3.7620    5.4050 C   0  0  0  0  0  3  0  0  0  0  0  0
    3.2830   -3.5500    6.4460 C   0  0  0  0  0  0  0  0  0  0  0  0
    4.6300   -3.5840    6.1350 C   0  0  0  0  0  0  0  0  0  0  0  0
    5.1070   -3.8270    4.8380 C   0  0  0  0  0  3  0  0  0  0  0  0
    5.7630   -3.3130    7.4290 S   0  0  0  0  0  0  0  0  0  0  0  0
    6.5210   -4.5380    7.5460 O   0  0  0  0  0  0  0  0  0  0  0  0
    6.4200   -2.0640    7.1130 O   0  0  0  0  0  0  0  0  0  0  0  0
    4.8680   -3.1220    8.7300 N   0  0  0  0  0  0  0  0  0  0  0  0
    3.5620   -3.1420    8.7570 C   0  0  1  0  0  3  0  0  0  0  0  0
    2.7980   -3.3330    7.6940 N   0  0  0  0  0  0  0  0  0  0  0  0
    5.3700   -2.9700    9.6030 H   0  0  0  0  0  0  0  0  0  0  0  0
    1.7860   -3.3270    7.8500 H   0  0  0  0  0  0  0  0  0  0  0  0
    2.8550   -2.9470   10.0960 C   0  0  0  0  0  0  0  0  0  0  0  0
    3.0200   -1.8690   10.8850 C   0  0  0  0  0  0  0  0  0  0  0  0
    2.2560   -1.7060   12.1340 C   0  0  0  0  0  0  0  0  0  0  0  0
    2.3050   -0.5520   12.9330 C   0  0  0  0  0  3  0  0  0  0  0  0
    1.5570   -0.4750   14.1050 C   0  0  0  0  0  3  0  0  0  0  0  0
    0.7680   -1.5510   14.4450 C   0  0  0  0  0  3  0  0  0  0  0  0
    0.6740   -2.6630   13.6880 N   0  0  0  0  0  0  0  0  0  0  0  0
    1.3950   -2.7320   12.5480 C   0  0  0  0  0  0  0  0  0  0  0  0
    1.2500   -3.8810   11.7330 N   0  0  0  0  0  0  0  0  0  0  0  0
    1.9320   -4.0320   10.5500 C   0  0  0  0  0  0  0  0  0  0  0  0
    1.8370   -5.0250    9.8230 O   0  0  0  0  0  0  0  0  0  0  0  0
    3.9400   -0.8870   10.5350 O   0  0  0  0  0  0  0  0  0  0  0  0
    4.1930   -0.3830   11.3350 H   0  0  0  0  0  0  0  0  0  0  0  0
    0.3250   -4.9420   12.1610 C   0  0  0  0  0  2  0  0  0  0  0  0
    0.9270   -5.8820   13.2180 C   0  0  0  0  0  2  0  0  0  0  0  0
    1.5890   -7.1580   12.6660 C   0  0  0  0  0  3  0  0  0  0  0  0
    1.7490   -8.1850   13.7910 C   0  0  0  0  0  1  0  0  0  0  0  0
    0.7770   -7.7770   11.5260 C   0  0  0  0  0  1  0  0  0  0  0  0
    4.4930   -4.2910    2.5070 O   0  0  0  0  0  0  0  0  0  0  0  0
    5.2440   -5.4710    2.2080 C   0  0  0  0  0  2  0  0  0  0  0  0
    5.9560   -6.0790   -0.1450 C   0  0  0  0  0  1  0  0  0  0  0  0
    4.8040   -6.0060    0.8480 C   0  0  0  0  0  2  0  0  0  0  0  0
  1  2  2  0  0  0  0
  1  6  1  0  0  0  0
  2  3  1  0  0  0  0
  3  4  2  0  0  0  0
  4 12  1  0  0  0  0
  5  4  1  0  0  0  0
  5  7  1  0  0  0  0
  6  5  2  0  0  0  0
  7  8  2  0  0  0  0
  7 10  1  0  0  0  0
  9  7  2  0  0  0  0
 10 11  1  0  0  0  0
 10 13  1  0  0  0  0
 11 15  1  1  0  0  0
 12 14  1  0  0  0  0
 12 11  1  0  0  0  0
 15 24  1  0  0  0  0
 15 16  2  0  0  0  0
 16 17  1  0  0  0  0
 17 22  2  0  0  0  0
 17 18  1  0  0  0  0
 18 19  2  0  0  0  0
 19 20  1  0  0  0  0
 21 20  2  0  0  0  0
 22 21  1  0  0  0  0
 23 28  1  0  0  0  0
 23 22  1  0  0  0  0
 24 23  1  0  0  0  0
 25 24  2  0  0  0  0
 26 16  1  0  0  0  0
 26 27  1  0  0  0  0
 28 29  1  0  0  0  0
 30 29  1  0  0  0  0
 30 31  1  0  0  0  0
 32 30  1  0  0  0  0
 33  1  1  0  0  0  0
 34 33  1  0  0  0  0
 35 36  1  0  0  0  0
 36 34  1  0  0  0  0
M  END
>  <minimizedAffinity>
-6.93850279

$$$$

 OpenBabel09122220403D

 36 39  0  0  1  0  0  0  0  0999 V2000
    4.6430   -5.3550    2.5670 C   0  0  0  0  0  0  0  0  0  0  0  0
    5.4940   -4.3260    2.9760 C   0  0  0  0  0  3  0  0  0  0  0  0
    5.6100   -3.9820    4.3280 C   0  0  0  0  0  3  0  0  0  0  0  0
    4.8760   -4.6640    5.3010 C   0  0  0  0  0  0  0  0  0  0  0  0
    4.0440   -5.6840    4.8750 C   0  0  0  0  0  0  0  0  0  0  0  0
    3.9110   -6.0440    3.5250 C   0  0  0  0  0  3  0  0  0  0  0  0
    3.1320   -6.5400    6.0860 S   0  0  0  0  0  0  0  0  0  0  0  0
    1.7430   -6.2850    5.7790 O   0  0  0  0  0  0  0  0  0  0  0  0
    3.6550   -7.8880    6.0820 O   0  0  0  0  0  0  0  0  0  0  0  0
    3.5050   -5.8350    7.4610 N   0  0  0  0  0  0  0  0  0  0  0  0
    4.3500   -4.8460    7.5980 C   0  0  1  0  0  3  0  0  0  0  0  0
    5.0100   -4.2880    6.5970 N   0  0  0  0  0  0  0  0  0  0  0  0
    3.0420   -6.1970    8.2930 H   0  0  0  0  0  0  0  0  0  0  0  0
    5.6420   -3.5180    6.8390 H   0  0  0  0  0  0  0  0  0  0  0  0
    4.5900   -4.2780    8.9940 C   0  0  0  0  0  0  0  0  0  0  0  0
    5.7260   -4.4570    9.6950 C   0  0  0  0  0  0  0  0  0  0  0  0
    5.9260   -3.8240   11.0100 C   0  0  0  0  0  0  0  0  0  0  0  0
    7.1310   -3.8840   11.7280 C   0  0  0  0  0  3  0  0  0  0  0  0
    7.2420   -3.2640   12.9700 C   0  0  0  0  0  3  0  0  0  0  0  0
    6.1460   -2.5890   13.4600 C   0  0  0  0  0  3  0  0  0  0  0  0
    4.9830   -2.4870   12.7850 N   0  0  0  0  0  0  0  0  0  0  0  0
    4.8820   -3.0830   11.5780 C   0  0  0  0  0  0  0  0  0  0  0  0
    3.6740   -2.9250   10.8540 N   0  0  0  0  0  0  0  0  0  0  0  0
    3.4860   -3.4840    9.6130 C   0  0  0  0  0  0  0  0  0  0  0  0
    2.4430   -3.3750    8.9610 O   0  0  0  0  0  0  0  0  0  0  0  0
    6.7350   -5.2680    9.1850 O   0  0  0  0  0  0  0  0  0  0  0  0
    7.3040   -5.5720    9.9210 H   0  0  0  0  0  0  0  0  0  0  0  0
    2.5920   -2.1240   11.4450 C   0  0  0  0  0  2  0  0  0  0  0  0
    1.5300   -2.9730   12.1630 C   0  0  0  0  0  2  0  0  0  0  0  0
    1.1330   -2.4830   13.5680 C   0  0  0  0  0  3  0  0  0  0  0  0
    2.0050   -3.1720   14.6220 C   0  0  0  0  0  1  0  0  0  0  0  0
    1.2740   -0.9660   13.7060 C   0  0  0  0  0  1  0  0  0  0  0  0
    4.6240   -5.5780    1.2230 O   0  0  0  0  0  0  0  0  0  0  0  0
    4.5760   -6.9340    0.7730 C   0  0  0  0  0  2  0  0  0  0  0  0
    6.2420   -5.8020   -0.7650 C   0  0  0  0  0  1  0  0  0  0  0  0
    5.4680   -7.0770   -0.4590 C   0  0  0  0  0  2  0  0  0  0  0  0
  1  2  2  0  0  0  0
  1  6  1  0  0  0  0
  2  3  1  0  0  0  0
  3  4  2  0  0  0  0
  4 12  1  0  0  0  0
  5  4  1  0  0  0  0
  5  7  1  0  0  0  0
  6  5  2  0  0  0  0
  7 10  1  0  0  0  0
  8  7  2  0  0  0  0
  9  7  2  0  0  0  0
 10 11  1  0  0  0  0
 10 13  1  0  0  0  0
 11 15  1  6  0  0  0
 12 14  1  0  0  0  0
 12 11  1  0  0  0  0
 15 24  1  0  0  0  0
 15 16  2  0  0  0  0
 16 17  1  0  0  0  0
 17 22  2  0  0  0  0
 17 18  1  0  0  0  0
 18 19  2  0  0  0  0
 19 20  1  0  0  0  0
 21 20  2  0  0  0  0
 22 21  1  0  0  0  0
 23 28  1  0  0  0  0
 23 22  1  0  0  0  0
 24 23  1  0  0  0  0
 25 24  2  0  0  0  0
 26 16  1  0  0  0  0
 26 27  1  0  0  0  0
 28 29  1  0  0  0  0
 29 30  1  0  0  0  0
 30 32  1  0  0  0  0
 30 31  1  0  0  0  0
 33  1  1  0  0  0  0
 34 33  1  0  0  0  0
 35 36  1  0  0  0  0
 36 34  1  0  0  0  0
M  END
>  <minimizedAffinity>
-6.9059968

$$$$
