
 OpenBabel09122222393D

 36 39  0  0  1  0  0  0  0  0999 V2000
    2.2500   -3.1690    9.4530 C   0  0  0  0  0  0  0  0  0  0  0  0
    2.1860   -4.5330    9.7450 C   0  0  0  0  0  3  0  0  0  0  0  0
    2.4040   -5.4930    8.7490 C   0  0  0  0  0  3  0  0  0  0  0  0
    2.6940   -5.1060    7.4390 C   0  0  0  0  0  0  0  0  0  0  0  0
    2.7600   -3.7500    7.1740 C   0  0  0  0  0  0  0  0  0  0  0  0
    2.5420   -2.7710    8.1550 C   0  0  0  0  0  3  0  0  0  0  0  0
    3.1280   -3.2640    5.5430 S   0  0  0  0  0  0  0  0  0  0  0  0
    1.9650   -2.5420    5.0810 O   0  0  0  0  0  0  0  0  0  0  0  0
    4.4200   -2.6190    5.6140 O   0  0  0  0  0  0  0  0  0  0  0  0
    3.2620   -4.6220    4.7260 N   0  0  0  0  0  0  0  0  0  0  0  0
    3.1440   -5.8220    5.2320 C   0  0  1  0  0  3  0  0  0  0  0  0
    2.8860   -6.0710    6.5050 N   0  0  0  0  0  0  0  0  0  0  0  0
    3.4600   -4.5310    3.7310 H   0  0  0  0  0  0  0  0  0  0  0  0
    2.8160   -7.0570    6.7730 H   0  0  0  0  0  0  0  0  0  0  0  0
    3.2960   -7.0240    4.3040 C   0  0  0  0  0  0  0  0  0  0  0  0
    2.4260   -8.0500    4.2520 C   0  0  0  0  0  0  0  0  0  0  0  0
    2.5890   -9.1500    3.2840 C   0  0  0  0  0  0  0  0  0  0  0  0
    1.6520  -10.1810    3.1120 C   0  0  0  0  0  3  0  0  0  0  0  0
    1.8810  -11.1900    2.1790 C   0  0  0  0  0  3  0  0  0  0  0  0
    3.0380  -11.1380    1.4340 C   0  0  0  0  0  3  0  0  0  0  0  0
    3.9450  -10.1470    1.5540 N   0  0  0  0  0  0  0  0  0  0  0  0
    3.7170   -9.1660    2.4530 C   0  0  0  0  0  0  0  0  0  0  0  0
    4.6500   -8.1030    2.5340 N   0  0  0  0  0  0  0  0  0  0  0  0
    4.4930   -7.0560    3.4100 C   0  0  0  0  0  0  0  0  0  0  0  0
    5.2920   -6.1200    3.5140 O   0  0  0  0  0  0  0  0  0  0  0  0
    1.3530   -8.0950    5.1360 O   0  0  0  0  0  0  0  0  0  0  0  0
    1.0400   -9.0190    5.2130 H   0  0  0  0  0  0  0  0  0  0  0  0
    5.8170   -8.1140    1.6400 C   0  0  0  0  0  2  0  0  0  0  0  0
    5.4690   -7.7760    0.1810 C   0  0  0  0  0  2  0  0  0  0  0  0
    5.8170   -6.3440   -0.2660 C   0  0  0  0  0  3  0  0  0  0  0  0
    4.6260   -5.4170   -0.0020 C   0  0  0  0  0  1  0  0  0  0  0  0
    7.0520   -5.8030    0.4580 C   0  0  0  0  0  1  0  0  0  0  0  0
    2.0110   -2.3490   10.5140 O   0  0  0  0  0  0  0  0  0  0  0  0
    2.9800   -2.3170   11.5640 C   0  0  0  0  0  2  0  0  0  0  0  0
    3.8460   -0.0270   10.9150 C   0  0  0  0  0  1  0  0  0  0  0  0
    3.1900   -0.8690   12.0010 C   0  0  0  0  0  2  0  0  0  0  0  0
  1  2  1  0  0  0  0
  1 33  1  0  0  0  0
  3  2  2  0  0  0  0
  4  3  1  0  0  0  0
  5  4  2  0  0  0  0
  5  6  1  0  0  0  0
  6  1  2  0  0  0  0
  7  9  2  0  0  0  0
  7  5  1  0  0  0  0
  8  7  2  0  0  0  0
 10 11  1  0  0  0  0
 10  7  1  0  0  0  0
 11 15  1  6  0  0  0
 11 12  1  0  0  0  0
 12 14  1  0  0  0  0
 12  4  1  0  0  0  0
 13 10  1  0  0  0  0
 16 15  2  0  0  0  0
 16 26  1  0  0  0  0
 17 16  1  0  0  0  0
 18 17  1  0  0  0  0
 19 18  2  0  0  0  0
 20 21  2  0  0  0  0
 20 19  1  0  0  0  0
 21 22  1  0  0  0  0
 22 23  1  0  0  0  0
 22 17  2  0  0  0  0
 23 24  1  0  0  0  0
 24 25  2  0  0  0  0
 24 15  1  0  0  0  0
 26 27  1  0  0  0  0
 28 23  1  0  0  0  0
 29 28  1  0  0  0  0
 30 31  1  0  0  0  0
 30 29  1  0  0  0  0
 30 32  1  0  0  0  0
 33 34  1  0  0  0  0
 34 36  1  0  0  0  0
 35 36  1  0  0  0  0
M  END
>  <minimizedAffinity>
-7.12865257

$$$$
