
 OpenBabel09122222393D

 36 39  0  0  1  0  0  0  0  0999 V2000
    4.0470   -4.0230    3.9730 C   0  0  0  0  0  0  0  0  0  0  0  0
    3.1570   -2.9690    4.1880 C   0  0  0  0  0  3  0  0  0  0  0  0
    2.9350   -2.4640    5.4750 C   0  0  0  0  0  3  0  0  0  0  0  0
    3.6040   -3.0050    6.5760 C   0  0  0  0  0  0  0  0  0  0  0  0
    4.4870   -4.0430    6.3390 C   0  0  0  0  0  0  0  0  0  0  0  0
    4.7220   -4.5650    5.0590 C   0  0  0  0  0  3  0  0  0  0  0  0
    5.3270   -4.7150    7.7080 S   0  0  0  0  0  0  0  0  0  0  0  0
    4.8940   -6.0910    7.7930 O   0  0  0  0  0  0  0  0  0  0  0  0
    6.7210   -4.3890    7.5040 O   0  0  0  0  0  0  0  0  0  0  0  0
    4.7780   -3.9110    8.9670 N   0  0  0  0  0  0  0  0  0  0  0  0
    3.9050   -2.9400    8.9190 C   0  0  1  0  0  3  0  0  0  0  0  0
    3.3470   -2.4930    7.8060 N   0  0  0  0  0  0  0  0  0  0  0  0
    5.1500   -4.1870    9.8740 H   0  0  0  0  0  0  0  0  0  0  0  0
    2.6750   -1.7270    7.9060 H   0  0  0  0  0  0  0  0  0  0  0  0
    3.4780   -2.2760   10.2260 C   0  0  0  0  0  0  0  0  0  0  0  0
    2.4030   -2.6500   10.9450 C   0  0  0  0  0  0  0  0  0  0  0  0
    2.0830   -2.0160   12.2360 C   0  0  0  0  0  0  0  0  0  0  0  0
    1.0430   -2.4440   13.0770 C   0  0  0  0  0  3  0  0  0  0  0  0
    0.7970   -1.7890   14.2810 C   0  0  0  0  0  3  0  0  0  0  0  0
    1.6060   -0.7270   14.6210 C   0  0  0  0  0  3  0  0  0  0  0  0
    2.6300   -0.3080   13.8510 N   0  0  0  0  0  0  0  0  0  0  0  0
    2.8700   -0.9490   12.6870 C   0  0  0  0  0  0  0  0  0  0  0  0
    3.9810   -0.5350   11.9120 N   0  0  0  0  0  0  0  0  0  0  0  0
    4.3100   -1.1370   10.7220 C   0  0  0  0  0  0  0  0  0  0  0  0
    5.2630   -0.7940   10.0170 O   0  0  0  0  0  0  0  0  0  0  0  0
    1.5580   -3.6440   10.4630 O   0  0  0  0  0  0  0  0  0  0  0  0
    0.6820   -3.5560   10.8910 H   0  0  0  0  0  0  0  0  0  0  0  0
    4.8180    0.5690   12.4060 C   0  0  0  0  0  2  0  0  0  0  0  0
    4.5410    1.9050   11.6980 C   0  0  0  0  0  2  0  0  0  0  0  0
    5.7590    2.8340   11.5400 C   0  0  0  0  0  3  0  0  0  0  0  0
    6.3090    3.2050   12.9210 C   0  0  0  0  0  1  0  0  0  0  0  0
    6.8690    2.1850   10.7100 C   0  0  0  0  0  1  0  0  0  0  0  0
    4.1610   -4.4150    2.6740 O   0  0  0  0  0  0  0  0  0  0  0  0
    5.2210   -5.3140    2.3390 C   0  0  0  0  0  2  0  0  0  0  0  0
    6.1220   -6.0960    0.1040 C   0  0  0  0  0  1  0  0  0  0  0  0
    4.8990   -5.9820    1.0040 C   0  0  0  0  0  2  0  0  0  0  0  0
  1  2  2  0  0  0  0
  1  6  1  0  0  0  0
  2  3  1  0  0  0  0
  3  4  2  0  0  0  0
  4 12  1  0  0  0  0
  5  4  1  0  0  0  0
  5  7  1  0  0  0  0
  6  5  2  0  0  0  0
  7  8  2  0  0  0  0
  7 10  1  0  0  0  0
  9  7  2  0  0  0  0
 10 13  1  0  0  0  0
 11 10  1  0  0  0  0
 11 15  1  1  0  0  0
 12 14  1  0  0  0  0
 12 11  1  0  0  0  0
 15 24  1  0  0  0  0
 15 16  2  0  0  0  0
 16 17  1  0  0  0  0
 17 22  2  0  0  0  0
 17 18  1  0  0  0  0
 18 19  2  0  0  0  0
 19 20  1  0  0  0  0
 21 20  2  0  0  0  0
 22 21  1  0  0  0  0
 23 28  1  0  0  0  0
 23 22  1  0  0  0  0
 24 23  1  0  0  0  0
 25 24  2  0  0  0  0
 26 27  1  0  0  0  0
 26 16  1  0  0  0  0
 29 28  1  0  0  0  0
 30 29  1  0  0  0  0
 30 31  1  0  0  0  0
 32 30  1  0  0  0  0
 33  1  1  0  0  0  0
 34 33  1  0  0  0  0
 35 36  1  0  0  0  0
 36 34  1  0  0  0  0
M  END
>  <minimizedAffinity>
-7.53575134

$$$$
