
 OpenBabel09122223333D

 15 15  0  0  0  0  0  0  0  0999 V2000
    4.3160   -3.4150    4.5130 C   0  0  0  0  0  0  0  0  0  0  0  0
    5.0990   -3.5260    5.4980 O   0  0  0  0  0  0  0  0  0  0  0  0
    4.4020   -3.8120    3.2200 C   0  0  0  0  0  2  0  0  0  0  0  0
    0.8920    0.0300    6.0560 C   0  0  0  0  0  1  0  0  0  0  0  0
    1.6540   -1.1420    5.5970 C   0  0  0  0  0  0  0  0  0  0  0  0
    2.9880   -1.3580    5.3350 C   0  0  0  0  0  3  0  0  0  0  0  0
    3.1110   -2.7150    4.9220 C   0  0  0  0  0  0  0  0  0  0  0  0
    1.8290   -3.2380    4.9720 C   0  0  0  0  0  0  0  0  0  0  0  0
    1.2700   -4.5750    4.6900 C   0  0  0  0  0  1  0  0  0  0  0  0
    0.9380   -2.2810    5.3760 O   0  0  0  0  0  0  0  0  0  0  0  0
    5.4900   -4.5530    2.4890 C   0  0  0  0  0  0  0  0  0  0  0  0
    6.5470   -4.9560    2.9710 O   0  0  0  0  0  0  0  0  0  0  0  0
    5.2780   -4.8390    0.9680 C   0  0  0  0  0  0  0  0  0  0  0  0
    6.3310   -4.9540    0.2450 O   0  0  0  0  0  0  0  0  0  0  0  0
    4.0840   -4.9480    0.5230 O   0  0  0  0  0  1  0  0  0  0  0  0
  1  7  1  0  0  0  0
  1  2  2  0  0  0  0
  3  1  1  0  0  0  0
  5  4  1  0  0  0  0
  6  5  2  0  0  0  0
  7  8  2  0  0  0  0
  7  6  1  0  0  0  0
  8 10  1  0  0  0  0
  9  8  1  0  0  0  0
 10  5  1  0  0  0  0
 11 12  2  0  0  0  0
 11  3  1  0  0  0  0
 13 11  1  0  0  0  0
 14 13  2  0  0  0  0
 15 13  1  0  0  0  0
M  END
>  <minimizedAffinity>
1.49108934

$$$$
