
 OpenBabel09122222393D

 40 42  0  0  1  0  0  0  0  0999 V2000
    2.5320   -4.5330    6.5180 C   0  0  2  0  0  3  0  0  0  0  0  0
    2.5720   -5.8510    6.7040 N   0  0  0  0  0  0  0  0  0  0  0  0
    2.6610   -6.8540    5.4010 S   0  0  0  0  0  0  0  0  0  0  0  0
    3.5660   -7.9440    5.6920 O   0  0  0  0  0  0  0  0  0  0  0  0
    1.3580   -7.1180    4.8300 O   0  0  0  0  0  0  0  0  0  0  0  0
    3.4890   -5.7730    4.2650 C   0  0  0  0  0  0  0  0  0  0  0  0
    5.1640   -5.9810    3.6050 C   0  0  0  0  0  3  0  0  0  0  0  0
    5.9780   -4.5920    2.7890 C   0  0  0  0  0  0  0  0  0  0  0  0
    5.0730   -3.0120    2.5460 C   0  0  0  0  0  3  0  0  0  0  0  0
    3.4580   -2.7760    3.3460 C   0  0  0  0  0  3  0  0  0  0  0  0
    2.6720   -4.1740    4.1860 C   0  0  0  0  0  0  0  0  0  0  0  0
    1.8660   -3.9720    5.3660 N   0  0  0  0  0  0  0  0  0  0  0  0
    3.1620   -6.1990    7.4460 H   0  0  0  0  0  0  0  0  0  0  0  0
    1.5180   -3.0190    5.4600 H   0  0  0  0  0  0  0  0  0  0  0  0
    3.4250   -2.6110    8.8140 N   0  0  0  0  0  0  0  0  0  0  0  0
    3.5980   -2.4750    7.2850 C   0  0  0  0  0  0  0  0  0  0  0  0
    3.2660   -1.5670    6.5330 O   0  0  0  0  0  0  0  0  0  0  0  0
    3.8690   -3.8500    6.6920 C   0  0  1  0  0  3  0  0  0  0  0  0
    4.9690   -4.4110    7.2120 C   0  0  1  0  0  3  0  0  0  0  0  0
    5.7800   -3.5800    8.1050 C   0  0  1  0  0  3  0  0  0  0  0  0
    7.1750   -3.6230    8.1050 C   0  0  0  0  0  3  0  0  0  0  0  0
    7.8740   -2.7510    8.9300 C   0  0  0  0  0  3  0  0  0  0  0  0
    7.1560   -1.8670    9.7150 C   0  0  0  0  0  3  0  0  0  0  0  0
    5.8040   -1.8110    9.7490 N   0  0  0  0  0  0  0  0  0  0  0  0
    5.0990   -2.6860    8.9780 C   0  0  0  0  0  0  0  0  0  0  0  0
    5.2190   -5.7620    7.1450 O   0  0  0  0  0  0  0  0  0  0  0  0
    6.0260   -5.9690    7.6520 H   0  0  0  0  0  0  0  0  0  0  0  0
    1.8540   -2.6310   10.2240 C   0  0  0  0  0  1  0  0  0  0  0  0
    0.8520   -3.9210   10.9050 C   0  0  0  0  0  2  0  0  0  0  0  0
    2.3180   -5.9060   10.1680 C   0  0  0  0  0  1  0  0  0  0  0  0
    0.9120   -5.3000   10.1920 C   0  0  0  0  0  3  0  0  0  0  0  0
   -0.0380   -6.2720   10.9030 C   0  0  0  0  0  1  0  0  0  0  0  0
    7.2450   -4.6860    2.1340 N   0  0  0  0  0  0  0  0  0  0  0  0
    7.9400   -4.9950    2.8180 H   0  0  0  0  0  0  0  0  0  0  0  0
    7.3640   -5.6730    0.7990 S   0  0  0  0  0  0  0  0  0  0  0  0
    6.0540   -6.0760    0.3660 O   0  0  0  0  0  0  0  0  0  0  0  0
    8.3850   -5.1820   -0.0900 O   0  0  0  0  0  0  0  0  0  0  0  0
    8.0490   -6.9800    1.5780 N   0  0  0  0  0  0  0  0  0  0  0  0
    7.9620   -7.8010    0.9760 H   0  0  0  0  0  0  0  0  0  0  0  0
    9.0350   -6.7720    1.7490 H   0  0  0  0  0  0  0  0  0  0  0  0
  1 12  1  6  0  0  0
  1 18  1  0  0  0  0
  1  2  1  0  0  0  0
  2 13  1  0  0  0  0
  3  4  2  0  0  0  0
  3  2  1  0  0  0  0
  5  3  2  0  0  0  0
  6  3  1  0  0  0  0
  7  6  2  0  0  0  0
  8  7  1  0  0  0  0
  9  8  2  0  0  0  0
  9 10  1  0  0  0  0
 10 11  2  0  0  0  0
 11  6  1  0  0  0  0
 11 12  1  0  0  0  0
 12 14  1  0  0  0  0
 15 25  2  0  0  0  0
 16 15  1  0  0  0  0
 17 16  2  0  0  0  0
 18 19  1  0  0  0  0
 18 16  1  1  0  0  0
 19 26  1  1  0  0  0
 19 20  1  0  0  0  0
 20 21  1  6  0  0  0
 20 25  1  0  0  0  0
 21 22  2  0  0  0  0
 22 23  1  0  0  0  0
 23 24  2  0  0  0  0
 25 24  1  0  0  0  0
 26 27  1  0  0  0  0
 28 29  1  0  0  0  0
 30 31  1  0  0  0  0
 31 32  1  0  0  0  0
 31 29  1  0  0  0  0
 33  8  1  0  0  0  0
 33 34  1  0  0  0  0
 35 38  1  0  0  0  0
 35 33  1  0  0  0  0
 36 35  2  0  0  0  0
 37 35  2  0  0  0  0
 38 40  1  0  0  0  0
 39 38  1  0  0  0  0
M  END
>  <minimizedAffinity>
-5.75902796

$$$$
