
 OpenBabel09122222393D

 40 42  0  0  1  0  0  0  0  0999 V2000
    4.3780   -5.9740    7.7310 C   0  0  2  0  0  3  0  0  0  0  0  0
    3.4610   -6.3810    8.6070 N   0  0  0  0  0  0  0  0  0  0  0  0
    3.7520   -6.2240   10.2200 S   0  0  0  0  0  0  0  0  0  0  0  0
    2.5420   -5.8060   10.8910 O   0  0  0  0  0  0  0  0  0  0  0  0
    4.5310   -7.3270   10.7400 O   0  0  0  0  0  0  0  0  0  0  0  0
    4.8410   -4.8260   10.1800 C   0  0  0  0  0  0  0  0  0  0  0  0
    4.4960   -3.1720   10.8360 C   0  0  0  0  0  3  0  0  0  0  0  0
    5.5470   -1.7860   10.3530 C   0  0  0  0  0  0  0  0  0  0  0  0
    7.0100   -2.0740    9.2810 C   0  0  0  0  0  3  0  0  0  0  0  0
    7.2480   -3.7040    8.5140 C   0  0  0  0  0  3  0  0  0  0  0  0
    6.1650   -5.0740    8.9900 C   0  0  0  0  0  0  0  0  0  0  0  0
    5.7860   -6.0870    8.0320 N   0  0  0  0  0  0  0  0  0  0  0  0
    2.4970   -6.1580    8.4090 H   0  0  0  0  0  0  0  0  0  0  0  0
    6.4190   -6.1480    7.2370 H   0  0  0  0  0  0  0  0  0  0  0  0
    3.6870   -5.2320    4.7750 N   0  0  0  0  0  0  0  0  0  0  0  0
    4.6930   -4.5810    5.7510 C   0  0  0  0  0  0  0  0  0  0  0  0
    5.8920   -4.3670    5.6190 O   0  0  0  0  0  0  0  0  0  0  0  0
    4.1080   -4.6030    7.1550 C   0  0  1  0  0  3  0  0  0  0  0  0
    2.9420   -3.9460    7.2220 C   0  0  1  0  0  3  0  0  0  0  0  0
    2.5240   -3.2130    6.0250 C   0  0  1  0  0  3  0  0  0  0  0  0
    1.8910   -1.9710    6.0910 C   0  0  0  0  0  3  0  0  0  0  0  0
    1.5900   -1.3050    4.9100 C   0  0  0  0  0  3  0  0  0  0  0  0
    1.9400   -1.9000    3.7100 C   0  0  0  0  0  3  0  0  0  0  0  0
    2.5400   -3.1090    3.6110 N   0  0  0  0  0  0  0  0  0  0  0  0
    2.8050   -3.7970    4.7580 C   0  0  0  0  0  0  0  0  0  0  0  0
    2.0370   -4.1350    8.2410 O   0  0  0  0  0  0  0  0  0  0  0  0
    1.2280   -3.6230    8.0550 H   0  0  0  0  0  0  0  0  0  0  0  0
    3.4380   -7.0670    3.7640 C   0  0  0  0  0  1  0  0  0  0  0  0
    4.0790   -7.7120    2.2450 C   0  0  0  0  0  2  0  0  0  0  0  0
    6.2170   -6.5540    1.3960 C   0  0  0  0  0  1  0  0  0  0  0  0
    4.6970   -6.6840    1.2570 C   0  0  0  0  0  3  0  0  0  0  0  0
    4.3620   -7.1070   -0.1790 C   0  0  0  0  0  1  0  0  0  0  0  0
    5.4320   -0.4720   10.9030 N   0  0  0  0  0  0  0  0  0  0  0  0
    6.2870    0.0460   10.6820 H   0  0  0  0  0  0  0  0  0  0  0  0
    4.1330    0.4600   10.4410 S   0  0  0  0  0  0  0  0  0  0  0  0
    2.9100   -0.1380   10.9020 O   0  0  0  0  0  0  0  0  0  0  0  0
    4.4470    1.8580   10.5910 O   0  0  0  0  0  0  0  0  0  0  0  0
    4.2430    0.1570    8.8030 N   0  0  0  0  0  0  0  0  0  0  0  0
    3.3640    0.4340    8.3610 H   0  0  0  0  0  0  0  0  0  0  0  0
    5.0150    0.7080    8.4260 H   0  0  0  0  0  0  0  0  0  0  0  0
  1 12  1  1  0  0  0
  1  2  1  0  0  0  0
  2  3  1  0  0  0  0
  3  5  2  0  0  0  0
  3  4  2  0  0  0  0
  6  3  1  0  0  0  0
  6  7  1  0  0  0  0
  8  7  2  0  0  0  0
  8 33  1  0  0  0  0
  9  8  1  0  0  0  0
 10 11  1  0  0  0  0
 10  9  2  0  0  0  0
 11  6  2  0  0  0  0
 12 11  1  0  0  0  0
 13  2  1  0  0  0  0
 14 12  1  0  0  0  0
 15 16  1  0  0  0  0
 17 16  2  0  0  0  0
 18 16  1  6  0  0  0
 18 19  1  0  0  0  0
 18  1  1  0  0  0  0
 19 26  1  6  0  0  0
 20 21  1  6  0  0  0
 20 19  1  0  0  0  0
 22 21  2  0  0  0  0
 23 22  1  0  0  0  0
 24 23  2  0  0  0  0
 24 25  1  0  0  0  0
 25 15  2  0  0  0  0
 25 20  1  0  0  0  0
 27 26  1  0  0  0  0
 29 28  1  0  0  0  0
 31 30  1  0  0  0  0
 31 29  1  0  0  0  0
 32 31  1  0  0  0  0
 34 33  1  0  0  0  0
 35 37  2  0  0  0  0
 35 36  2  0  0  0  0
 35 33  1  0  0  0  0
 38 35  1  0  0  0  0
 39 38  1  0  0  0  0
 40 38  1  0  0  0  0
M  END
>  <minimizedAffinity>
-5.78229618

$$$$
