
 OpenBabel09122222393D

 40 42  0  0  1  0  0  0  0  0999 V2000
    3.5110   -4.8740    9.7840 C   0  0  2  0  0  3  0  0  0  0  0  0
    4.4420   -5.6550    9.2400 N   0  0  0  0  0  0  0  0  0  0  0  0
    4.2080   -7.2850    9.1880 S   0  0  0  0  0  0  0  0  0  0  0  0
    4.6750   -7.8000    7.9210 O   0  0  0  0  0  0  0  0  0  0  0  0
    4.5950   -7.9270   10.4260 O   0  0  0  0  0  0  0  0  0  0  0  0
    2.4360   -7.3160    9.1480 C   0  0  0  0  0  0  0  0  0  0  0  0
    1.3990   -7.8700    7.7690 C   0  0  0  0  0  3  0  0  0  0  0  0
   -0.3590   -7.4600    7.7550 C   0  0  0  0  0  0  0  0  0  0  0  0
   -1.1040   -6.5700    9.1790 C   0  0  0  0  0  3  0  0  0  0  0  0
   -0.0230   -5.8930   10.4730 C   0  0  0  0  0  3  0  0  0  0  0  0
    1.7430   -6.2920   10.4520 C   0  0  0  0  0  0  0  0  0  0  0  0
    2.7250   -5.3350   10.9040 N   0  0  0  0  0  0  0  0  0  0  0  0
    4.8690   -5.3430    8.3800 H   0  0  0  0  0  0  0  0  0  0  0  0
    2.3390   -4.6180   11.5170 H   0  0  0  0  0  0  0  0  0  0  0  0
    3.2160   -1.8310    9.1350 N   0  0  0  0  0  0  0  0  0  0  0  0
    2.1300   -2.9030    9.3740 C   0  0  0  0  0  0  0  0  0  0  0  0
    1.1970   -2.9160   10.1690 O   0  0  0  0  0  0  0  0  0  0  0  0
    2.5940   -4.2230    8.7750 C   0  0  1  0  0  3  0  0  0  0  0  0
    2.8290   -4.1200    7.4600 C   0  0  1  0  0  3  0  0  0  0  0  0
    2.4640   -2.8560    6.8170 C   0  0  1  0  0  3  0  0  0  0  0  0
    1.9100   -2.8000    5.5370 C   0  0  0  0  0  3  0  0  0  0  0  0
    1.5220   -1.5690    5.0250 C   0  0  0  0  0  3  0  0  0  0  0  0
    1.6940   -0.4430    5.8120 C   0  0  0  0  0  3  0  0  0  0  0  0
    2.2410   -0.4620    7.0500 N   0  0  0  0  0  0  0  0  0  0  0  0
    2.6660   -1.6550    7.5530 C   0  0  0  0  0  0  0  0  0  0  0  0
    3.6030   -5.0230    6.7690 O   0  0  0  0  0  0  0  0  0  0  0  0
    3.7120   -4.7190    5.8480 H   0  0  0  0  0  0  0  0  0  0  0  0
    4.7340   -0.8590   10.2310 C   0  0  0  0  0  1  0  0  0  0  0  0
    6.5000   -0.8420   10.1040 C   0  0  0  0  0  2  0  0  0  0  0  0
    8.1520   -1.1980    8.1610 C   0  0  0  0  0  1  0  0  0  0  0  0
    7.1380   -1.8480    9.1060 C   0  0  0  0  0  3  0  0  0  0  0  0
    7.8360   -2.9620    9.8970 C   0  0  0  0  0  1  0  0  0  0  0  0
   -1.2820   -7.9470    6.7790 N   0  0  0  0  0  0  0  0  0  0  0  0
   -2.1970   -8.0520    7.2240 H   0  0  0  0  0  0  0  0  0  0  0  0
   -1.4870   -7.0600    5.3850 S   0  0  0  0  0  0  0  0  0  0  0  0
   -0.4260   -6.0990    5.2520 O   0  0  0  0  0  0  0  0  0  0  0  0
   -1.9320   -7.9150    4.3150 O   0  0  0  0  0  0  0  0  0  0  0  0
   -2.8470   -6.2270    5.8780 N   0  0  0  0  0  0  0  0  0  0  0  0
   -2.9830   -5.4280    5.2550 H   0  0  0  0  0  0  0  0  0  0  0  0
   -3.6480   -6.8570    5.8210 H   0  0  0  0  0  0  0  0  0  0  0  0
  1  2  1  6  0  0  0
  1 12  1  0  0  0  0
  3  2  1  0  0  0  0
  3  5  2  0  0  0  0
  4  3  2  0  0  0  0
  6  3  1  0  0  0  0
  6 11  1  0  0  0  0
  7  6  2  0  0  0  0
  8  7  1  0  0  0  0
  8  9  2  0  0  0  0
  9 10  1  0  0  0  0
 11 10  2  0  0  0  0
 11 12  1  0  0  0  0
 12 14  1  0  0  0  0
 13  2  1  0  0  0  0
 15 16  1  0  0  0  0
 16 17  2  0  0  0  0
 18 16  1  1  0  0  0
 18  1  1  0  0  0  0
 19 26  1  1  0  0  0
 19 18  1  0  0  0  0
 20 21  1  1  0  0  0
 20 19  1  0  0  0  0
 20 25  1  0  0  0  0
 22 21  2  0  0  0  0
 22 23  1  0  0  0  0
 23 24  2  0  0  0  0
 24 25  1  0  0  0  0
 25 15  2  0  0  0  0
 27 26  1  0  0  0  0
 29 28  1  0  0  0  0
 30 31  1  0  0  0  0
 31 32  1  0  0  0  0
 31 29  1  0  0  0  0
 33 34  1  0  0  0  0
 33  8  1  0  0  0  0
 35 38  1  0  0  0  0
 35 33  1  0  0  0  0
 36 35  2  0  0  0  0
 37 35  2  0  0  0  0
 39 38  1  0  0  0  0
 40 38  1  0  0  0  0
M  END
>  <minimizedAffinity>
-4.9823451

$$$$
