
 OpenBabel09122222393D

 40 42  0  0  1  0  0  0  0  0999 V2000
    2.6540   -4.4010    7.1180 C   0  0  2  0  0  3  0  0  0  0  0  0
    2.7390   -5.4710    7.9070 N   0  0  0  0  0  0  0  0  0  0  0  0
    2.4250   -6.9650    7.2890 S   0  0  0  0  0  0  0  0  0  0  0  0
    3.3670   -7.9190    7.8290 O   0  0  0  0  0  0  0  0  0  0  0  0
    1.0080   -7.2610    7.2800 O   0  0  0  0  0  0  0  0  0  0  0  0
    2.8790   -6.6760    5.6000 C   0  0  0  0  0  0  0  0  0  0  0  0
    4.2770   -7.4190    4.7170 C   0  0  0  0  0  3  0  0  0  0  0  0
    4.8170   -6.7110    3.1470 C   0  0  0  0  0  0  0  0  0  0  0  0
    3.8920   -5.3070    2.4070 C   0  0  0  0  0  3  0  0  0  0  0  0
    2.5940   -4.4830    3.3780 C   0  0  0  0  0  3  0  0  0  0  0  0
    2.0880   -5.1920    4.9640 C   0  0  0  0  0  0  0  0  0  0  0  0
    1.6750   -4.3450    6.0580 N   0  0  0  0  0  0  0  0  0  0  0  0
    3.5220   -5.5210    8.5420 H   0  0  0  0  0  0  0  0  0  0  0  0
    1.3780   -3.4170    5.7600 H   0  0  0  0  0  0  0  0  0  0  0  0
    4.0290   -1.6300    7.5570 N   0  0  0  0  0  0  0  0  0  0  0  0
    3.8420   -2.4490    6.2610 C   0  0  0  0  0  0  0  0  0  0  0  0
    3.3330   -2.1280    5.1930 O   0  0  0  0  0  0  0  0  0  0  0  0
    3.9860   -3.9290    6.5830 C   0  0  1  0  0  3  0  0  0  0  0  0
    5.1830   -4.2110    7.1130 C   0  0  1  0  0  3  0  0  0  0  0  0
    6.1680   -3.1280    7.1450 C   0  0  1  0  0  3  0  0  0  0  0  0
    7.5260   -3.3430    6.9030 C   0  0  0  0  0  3  0  0  0  0  0  0
    8.3850   -2.2530    6.8780 C   0  0  0  0  0  3  0  0  0  0  0  0
    7.8570   -0.9910    7.0870 C   0  0  0  0  0  3  0  0  0  0  0  0
    6.5490   -0.7500    7.3390 N   0  0  0  0  0  0  0  0  0  0  0  0
    5.6960   -1.8110    7.4080 C   0  0  0  0  0  0  0  0  0  0  0  0
    5.4280   -5.3580    7.8320 O   0  0  0  0  0  0  0  0  0  0  0  0
    6.3330   -5.3280    8.1940 H   0  0  0  0  0  0  0  0  0  0  0  0
    2.8270   -0.6080    8.9590 C   0  0  0  0  0  1  0  0  0  0  0  0
    3.1640    0.1400   10.5280 C   0  0  0  0  0  2  0  0  0  0  0  0
    5.4600   -0.9770   10.8640 C   0  0  0  0  0  1  0  0  0  0  0  0
    4.6600    0.3280   10.9040 C   0  0  0  0  0  3  0  0  0  0  0  0
    5.2960    1.3330    9.9360 C   0  0  0  0  0  1  0  0  0  0  0  0
    5.8270   -7.2900    2.3190 N   0  0  0  0  0  0  0  0  0  0  0  0
    5.3750   -7.9180    1.6490 H   0  0  0  0  0  0  0  0  0  0  0  0
    6.8250   -6.2640    1.4690 S   0  0  0  0  0  0  0  0  0  0  0  0
    6.4760   -6.2820    0.0740 O   0  0  0  0  0  0  0  0  0  0  0  0
    7.0530   -5.0580    2.2220 O   0  0  0  0  0  0  0  0  0  0  0  0
    8.2230   -7.1600    1.6380 N   0  0  0  0  0  0  0  0  0  0  0  0
    8.9080   -6.8270    0.9570 H   0  0  0  0  0  0  0  0  0  0  0  0
    8.5780   -7.0270    2.5870 H   0  0  0  0  0  0  0  0  0  0  0  0
  1 12  1  6  0  0  0
  1  2  1  0  0  0  0
  2 13  1  0  0  0  0
  3  4  2  0  0  0  0
  3  2  1  0  0  0  0
  5  3  2  0  0  0  0
  6  3  1  0  0  0  0
  7  6  2  0  0  0  0
  8  7  1  0  0  0  0
  9  8  2  0  0  0  0
  9 10  1  0  0  0  0
 10 11  2  0  0  0  0
 11  6  1  0  0  0  0
 11 12  1  0  0  0  0
 14 12  1  0  0  0  0
 16 15  1  0  0  0  0
 17 16  2  0  0  0  0
 18 16  1  1  0  0  0
 18 19  1  0  0  0  0
 18  1  1  0  0  0  0
 19 20  1  0  0  0  0
 19 26  1  1  0  0  0
 20 21  1  6  0  0  0
 20 25  1  0  0  0  0
 22 21  2  0  0  0  0
 22 23  1  0  0  0  0
 23 24  2  0  0  0  0
 24 25  1  0  0  0  0
 25 15  2  0  0  0  0
 26 27  1  0  0  0  0
 28 29  1  0  0  0  0
 29 31  1  0  0  0  0
 30 31  1  0  0  0  0
 32 31  1  0  0  0  0
 33  8  1  0  0  0  0
 34 33  1  0  0  0  0
 35 38  1  0  0  0  0
 35 37  2  0  0  0  0
 35 33  1  0  0  0  0
 36 35  2  0  0  0  0
 38 40  1  0  0  0  0
 39 38  1  0  0  0  0
M  END
>  <minimizedAffinity>
-3.87014794

$$$$
