
 OpenBabel09132204463D

 28 32  0  0  0  0  0  0  0  0999 V2000
    3.8390   -8.9580    9.5880 C   0  0  0  0  0  1  0  0  0  0  0  0
    3.2590   -8.0230    8.6310 N   0  0  0  0  0  0  0  0  0  0  0  0
    3.3230   -8.4330    7.2160 C   0  0  0  0  0  2  0  0  0  0  0  0
    2.5210   -7.5900    6.2360 C   0  0  0  0  0  2  0  0  0  0  0  0
    3.2080   -6.3270    6.0340 N   0  0  0  0  0  0  0  0  0  0  0  0
    3.4110   -5.4320    7.0610 C   0  0  0  0  0  0  0  0  0  0  0  0
    4.3000   -4.4640    6.5830 C   0  0  0  0  0  0  0  0  0  0  0  0
    4.5450   -4.7680    5.1930 C   0  0  0  0  0  0  0  0  0  0  0  0
    5.3140   -4.1680    4.1720 C   0  0  0  0  0  3  0  0  0  0  0  0
    5.3640   -4.7440    2.8940 C   0  0  0  0  0  3  0  0  0  0  0  0
    4.6660   -5.9190    2.5960 C   0  0  0  0  0  0  0  0  0  0  0  0
    3.8960   -6.5200    3.6060 C   0  0  0  0  0  3  0  0  0  0  0  0
    3.8470   -5.9350    4.8860 C   0  0  0  0  0  0  0  0  0  0  0  0
    2.7480   -5.5960    8.3700 C   0  0  0  0  0  0  0  0  0  0  0  0
    2.1030   -4.4560    8.8990 C   0  0  0  0  0  3  0  0  0  0  0  0
    1.4710   -4.4800   10.1390 C   0  0  0  0  0  3  0  0  0  0  0  0
    1.4650   -5.6560   10.8700 C   0  0  0  0  0  3  0  0  0  0  0  0
    2.0740   -6.8010   10.3480 C   0  0  0  0  0  3  0  0  0  0  0  0
    2.7170   -6.8230    9.0880 C   0  0  0  0  0  0  0  0  0  0  0  0
    4.9090   -3.3310    7.3790 C   0  0  0  0  0  3  0  0  0  0  0  0
    6.4470   -3.3850    7.4050 C   0  0  0  0  0  2  0  0  0  0  0  0
    7.0340   -2.2510    8.2430 C   0  0  0  0  0  2  0  0  0  0  0  0
    6.5300   -0.8880    7.7780 C   0  0  0  0  0  2  0  0  0  0  0  0
    5.0060   -0.8270    7.7600 C   0  0  0  0  0  2  0  0  0  0  0  0
    4.4050   -1.9520    6.9200 C   0  0  0  0  0  2  0  0  0  0  0  0
    4.7410   -6.5420    1.2130 C   0  0  0  0  0  0  0  0  0  0  0  0
    4.6780   -5.7520    0.2170 O   0  0  0  0  0  0  0  0  0  0  0  0
    4.8570   -7.8080    1.1490 O   0  0  0  0  0  1  0  0  0  0  0  0
  2 19  1  0  0  0  0
  2  1  1  0  0  0  0
  3  2  1  0  0  0  0
  4  3  1  0  0  0  0
  5  4  1  0  0  0  0
  5  6  1  0  0  0  0
  6 14  1  0  0  0  0
  7  6  2  0  0  0  0
  7 20  1  0  0  0  0
  8  7  1  0  0  0  0
  9  8  2  0  0  0  0
 10  9  1  0  0  0  0
 11 10  2  0  0  0  0
 11 12  1  0  0  0  0
 12 13  2  0  0  0  0
 13  8  1  0  0  0  0
 13  5  1  0  0  0  0
 14 15  2  0  0  0  0
 14 19  1  0  0  0  0
 15 16  1  0  0  0  0
 16 17  2  0  0  0  0
 18 17  1  0  0  0  0
 19 18  2  0  0  0  0
 20 21  1  0  0  0  0
 21 22  1  0  0  0  0
 23 22  1  0  0  0  0
 24 23  1  0  0  0  0
 25 20  1  0  0  0  0
 25 24  1  0  0  0  0
 26 11  1  0  0  0  0
 27 26  2  0  0  0  0
 28 26  1  0  0  0  0
M  END
>  <minimizedAffinity>
-6.67949772

$$$$
