
 OpenBabel09132204463D

 28 32  0  0  0  0  0  0  0  0999 V2000
    7.7950   -4.5720    1.9550 C   0  0  0  0  0  1  0  0  0  0  0  0
    6.3840   -4.8530    2.1910 N   0  0  0  0  0  0  0  0  0  0  0  0
    5.7730   -4.1440    3.3310 C   0  0  0  0  0  2  0  0  0  0  0  0
    4.2590   -4.2420    3.4490 C   0  0  0  0  0  2  0  0  0  0  0  0
    3.9110   -5.5700    3.9220 N   0  0  0  0  0  0  0  0  0  0  0  0
    4.2020   -6.7040    3.1980 C   0  0  0  0  0  0  0  0  0  0  0  0
    3.9600   -7.7940    4.0410 C   0  0  0  0  0  0  0  0  0  0  0  0
    3.4210   -7.2640    5.2690 C   0  0  0  0  0  0  0  0  0  0  0  0
    2.9630   -7.8380    6.4760 C   0  0  0  0  0  3  0  0  0  0  0  0
    2.5120   -7.0190    7.5210 C   0  0  0  0  0  3  0  0  0  0  0  0
    2.5040   -5.6240    7.4050 C   0  0  0  0  0  0  0  0  0  0  0  0
    2.9540   -5.0460    6.2060 C   0  0  0  0  0  3  0  0  0  0  0  0
    3.4030   -5.8740    5.1590 C   0  0  0  0  0  0  0  0  0  0  0  0
    4.6770   -6.6290    1.8010 C   0  0  0  0  0  0  0  0  0  0  0  0
    4.0240   -7.4610    0.8660 C   0  0  0  0  0  3  0  0  0  0  0  0
    4.4040   -7.4990   -0.4720 C   0  0  0  0  0  3  0  0  0  0  0  0
    5.4430   -6.6920   -0.9020 C   0  0  0  0  0  3  0  0  0  0  0  0
    6.0810   -5.8410    0.0060 C   0  0  0  0  0  3  0  0  0  0  0  0
    5.7200   -5.7630    1.3720 C   0  0  0  0  0  0  0  0  0  0  0  0
    4.2370   -9.2490    3.7310 C   0  0  0  0  0  3  0  0  0  0  0  0
    5.0560   -9.9430    4.8340 C   0  0  0  0  0  2  0  0  0  0  0  0
    5.3500  -11.4000    4.4800 C   0  0  0  0  0  2  0  0  0  0  0  0
    4.0730  -12.1710    4.1620 C   0  0  0  0  0  2  0  0  0  0  0  0
    3.2630  -11.4910    3.0630 C   0  0  0  0  0  2  0  0  0  0  0  0
    2.9560  -10.0350    3.4060 C   0  0  0  0  0  2  0  0  0  0  0  0
    2.0270   -4.7480    8.5490 C   0  0  0  0  0  0  0  0  0  0  0  0
    2.4100   -3.5340    8.5500 O   0  0  0  0  0  0  0  0  0  0  0  0
    1.2820   -5.2900    9.4270 O   0  0  0  0  0  1  0  0  0  0  0  0
  1  2  1  0  0  0  0
  2  3  1  0  0  0  0
  3  4  1  0  0  0  0
  4  5  1  0  0  0  0
  5 13  1  0  0  0  0
  6  5  1  0  0  0  0
  6  7  2  0  0  0  0
  7  8  1  0  0  0  0
  8  9  1  0  0  0  0
  9 10  2  0  0  0  0
 11 10  1  0  0  0  0
 11 26  1  0  0  0  0
 12 11  2  0  0  0  0
 13  8  2  0  0  0  0
 13 12  1  0  0  0  0
 14  6  1  0  0  0  0
 15 14  2  0  0  0  0
 16 15  1  0  0  0  0
 17 16  2  0  0  0  0
 17 18  1  0  0  0  0
 18 19  2  0  0  0  0
 19 14  1  0  0  0  0
 19  2  1  0  0  0  0
 20  7  1  0  0  0  0
 20 21  1  0  0  0  0
 22 21  1  0  0  0  0
 23 22  1  0  0  0  0
 24 25  1  0  0  0  0
 24 23  1  0  0  0  0
 25 20  1  0  0  0  0
 26 27  2  0  0  0  0
 26 28  1  0  0  0  0
M  END
>  <minimizedAffinity>
-7.02970552

$$$$
