
 OpenBabel09132204463D

 28 32  0  0  0  0  0  0  0  0999 V2000
    0.6040  -10.3820    3.4830 C   0  0  0  0  0  1  0  0  0  0  0  0
    1.6440   -9.5680    4.1020 N   0  0  0  0  0  0  0  0  0  0  0  0
    1.1720   -8.3830    4.8420 C   0  0  0  0  0  2  0  0  0  0  0  0
    2.2130   -7.6590    5.6840 C   0  0  0  0  0  2  0  0  0  0  0  0
    3.0940   -6.9160    4.8010 N   0  0  0  0  0  0  0  0  0  0  0  0
    3.8870   -7.5390    3.8640 C   0  0  0  0  0  0  0  0  0  0  0  0
    4.4030   -6.5340    3.0410 C   0  0  0  0  0  0  0  0  0  0  0  0
    3.9600   -5.2740    3.5850 C   0  0  0  0  0  0  0  0  0  0  0  0
    4.1600   -3.9210    3.2350 C   0  0  0  0  0  3  0  0  0  0  0  0
    3.5470   -2.9000    3.9770 C   0  0  0  0  0  3  0  0  0  0  0  0
    2.7270   -3.1870    5.0730 C   0  0  0  0  0  0  0  0  0  0  0  0
    2.5270   -4.5310    5.4310 C   0  0  0  0  0  3  0  0  0  0  0  0
    3.1460   -5.5500    4.6840 C   0  0  0  0  0  0  0  0  0  0  0  0
    4.0610   -9.0050    3.8520 C   0  0  0  0  0  0  0  0  0  0  0  0
    5.3870   -9.4840    3.7640 C   0  0  0  0  0  3  0  0  0  0  0  0
    5.6730  -10.8440    3.7140 C   0  0  0  0  0  3  0  0  0  0  0  0
    4.6330  -11.7560    3.7610 C   0  0  0  0  0  3  0  0  0  0  0  0
    3.3160  -11.2990    3.8770 C   0  0  0  0  0  3  0  0  0  0  0  0
    2.9810   -9.9260    3.9420 C   0  0  0  0  0  0  0  0  0  0  0  0
    5.2460   -6.7330    1.7990 C   0  0  0  0  0  3  0  0  0  0  0  0
    4.4070   -6.7260    0.5080 C   0  0  0  0  0  2  0  0  0  0  0  0
    5.2760   -6.9630   -0.7260 C   0  0  0  0  0  2  0  0  0  0  0  0
    6.4280   -5.9670   -0.8020 C   0  0  0  0  0  2  0  0  0  0  0  0
    7.2680   -5.9770    0.4710 C   0  0  0  0  0  2  0  0  0  0  0  0
    6.4130   -5.7350    1.7130 C   0  0  0  0  0  2  0  0  0  0  0  0
    2.0570   -2.0740    5.8600 C   0  0  0  0  0  0  0  0  0  0  0  0
    1.2470   -1.3230    5.2280 O   0  0  0  0  0  0  0  0  0  0  0  0
    2.3570   -1.9700    7.0920 O   0  0  0  0  0  1  0  0  0  0  0  0
  1  2  1  0  0  0  0
  2  3  1  0  0  0  0
  3  4  1  0  0  0  0
  5  4  1  0  0  0  0
  6  5  1  0  0  0  0
  7  8  1  0  0  0  0
  7  6  2  0  0  0  0
  8 13  1  0  0  0  0
  9  8  2  0  0  0  0
  9 10  1  0  0  0  0
 10 11  2  0  0  0  0
 11 12  1  0  0  0  0
 11 26  1  0  0  0  0
 13  5  1  0  0  0  0
 13 12  2  0  0  0  0
 14  6  1  0  0  0  0
 14 19  1  0  0  0  0
 15 14  2  0  0  0  0
 16 17  2  0  0  0  0
 16 15  1  0  0  0  0
 17 18  1  0  0  0  0
 18 19  2  0  0  0  0
 19  2  1  0  0  0  0
 20  7  1  0  0  0  0
 21 20  1  0  0  0  0
 22 21  1  0  0  0  0
 23 22  1  0  0  0  0
 23 24  1  0  0  0  0
 24 25  1  0  0  0  0
 25 20  1  0  0  0  0
 26 28  1  0  0  0  0
 27 26  2  0  0  0  0
M  END
>  <minimizedAffinity>
-8.2039156

$$$$
