
 OpenBabel09132204463D

 28 32  0  0  0  0  0  0  0  0999 V2000
    3.0830   -3.1200    4.2060 C   0  0  0  0  0  1  0  0  0  0  0  0
    3.1170   -4.4420    4.8200 N   0  0  0  0  0  0  0  0  0  0  0  0
    3.5040   -5.5510    3.9290 C   0  0  0  0  0  2  0  0  0  0  0  0
    3.7710   -6.8900    4.6000 C   0  0  0  0  0  2  0  0  0  0  0  0
    2.5030   -7.4780    4.9940 N   0  0  0  0  0  0  0  0  0  0  0  0
    1.6690   -6.8760    5.9090 C   0  0  0  0  0  0  0  0  0  0  0  0
    0.4550   -7.5670    5.8650 C   0  0  0  0  0  0  0  0  0  0  0  0
    0.6310   -8.6700    4.9510 C   0  0  0  0  0  0  0  0  0  0  0  0
   -0.1950   -9.7240    4.5050 C   0  0  0  0  0  3  0  0  0  0  0  0
    0.2830  -10.6450    3.5610 C   0  0  0  0  0  3  0  0  0  0  0  0
    1.5760  -10.5470    3.0350 C   0  0  0  0  0  0  0  0  0  0  0  0
    2.4060   -9.5020    3.4780 C   0  0  0  0  0  3  0  0  0  0  0  0
    1.9210   -8.5830    4.4280 C   0  0  0  0  0  0  0  0  0  0  0  0
    2.1130   -5.7190    6.7130 C   0  0  0  0  0  0  0  0  0  0  0  0
    1.8740   -5.7860    8.1030 C   0  0  0  0  0  3  0  0  0  0  0  0
    2.2190   -4.7430    8.9580 C   0  0  0  0  0  3  0  0  0  0  0  0
    2.8240   -3.6130    8.4340 C   0  0  0  0  0  3  0  0  0  0  0  0
    3.0940   -3.5430    7.0640 C   0  0  0  0  0  3  0  0  0  0  0  0
    2.7690   -4.5840    6.1620 C   0  0  0  0  0  0  0  0  0  0  0  0
   -0.8100   -7.2100    6.6140 C   0  0  0  0  0  3  0  0  0  0  0  0
   -2.0020   -6.9560    5.6740 C   0  0  0  0  0  2  0  0  0  0  0  0
   -3.2570   -6.5640    6.4530 C   0  0  0  0  0  2  0  0  0  0  0  0
   -3.5990   -7.5960    7.5240 C   0  0  0  0  0  2  0  0  0  0  0  0
   -2.4230   -7.8430    8.4640 C   0  0  0  0  0  2  0  0  0  0  0  0
   -1.1630   -8.2420    7.6990 C   0  0  0  0  0  2  0  0  0  0  0  0
    2.0770  -11.5410    2.0020 C   0  0  0  0  0  0  0  0  0  0  0  0
    3.3250  -11.5400    1.7520 O   0  0  0  0  0  1  0  0  0  0  0  0
    1.2130  -12.3010    1.4580 O   0  0  0  0  0  0  0  0  0  0  0  0
  1  2  1  0  0  0  0
  2 19  1  0  0  0  0
  3  4  1  0  0  0  0
  3  2  1  0  0  0  0
  4  5  1  0  0  0  0
  5  6  1  0  0  0  0
  6 14  1  0  0  0  0
  7  6  2  0  0  0  0
  7 20  1  0  0  0  0
  8  7  1  0  0  0  0
  9  8  1  0  0  0  0
 10  9  2  0  0  0  0
 11 12  2  0  0  0  0
 11 10  1  0  0  0  0
 12 13  1  0  0  0  0
 13  8  2  0  0  0  0
 13  5  1  0  0  0  0
 14 15  1  0  0  0  0
 15 16  2  0  0  0  0
 17 16  1  0  0  0  0
 18 17  2  0  0  0  0
 19 14  2  0  0  0  0
 19 18  1  0  0  0  0
 20 25  1  0  0  0  0
 21 22  1  0  0  0  0
 21 20  1  0  0  0  0
 22 23  1  0  0  0  0
 23 24  1  0  0  0  0
 25 24  1  0  0  0  0
 26 11  1  0  0  0  0
 27 26  1  0  0  0  0
 28 26  2  0  0  0  0
M  END
>  <minimizedAffinity>
-7.03312683

$$$$
