
 OpenBabel09132204463D

 28 32  0  0  0  0  0  0  0  0999 V2000
    4.2130  -10.5720    7.1870 C   0  0  0  0  0  1  0  0  0  0  0  0
    3.5100   -9.8000    6.1680 N   0  0  0  0  0  0  0  0  0  0  0  0
    4.0250   -9.9390    4.7930 C   0  0  0  0  0  2  0  0  0  0  0  0
    3.1670   -9.3330    3.6920 C   0  0  0  0  0  2  0  0  0  0  0  0
    3.3030   -7.8880    3.7350 N   0  0  0  0  0  0  0  0  0  0  0  0
    2.9090   -7.1480    4.8260 C   0  0  0  0  0  0  0  0  0  0  0  0
    3.4010   -5.8530    4.6350 C   0  0  0  0  0  0  0  0  0  0  0  0
    4.0270   -5.8290    3.3350 C   0  0  0  0  0  0  0  0  0  0  0  0
    4.6740   -4.8350    2.5690 C   0  0  0  0  0  3  0  0  0  0  0  0
    5.2160   -5.1500    1.3140 C   0  0  0  0  0  3  0  0  0  0  0  0
    5.1360   -6.4450    0.7900 C   0  0  0  0  0  0  0  0  0  0  0  0
    4.4900   -7.4390    1.5450 C   0  0  0  0  0  3  0  0  0  0  0  0
    3.9460   -7.1150    2.8020 C   0  0  0  0  0  0  0  0  0  0  0  0
    2.1170   -7.7460    5.9200 C   0  0  0  0  0  0  0  0  0  0  0  0
    0.9700   -7.0350    6.3340 C   0  0  0  0  0  3  0  0  0  0  0  0
    0.1650   -7.4840    7.3760 C   0  0  0  0  0  3  0  0  0  0  0  0
    0.4890   -8.6660    8.0190 C   0  0  0  0  0  3  0  0  0  0  0  0
    1.6060   -9.3980    7.6020 C   0  0  0  0  0  3  0  0  0  0  0  0
    2.4450   -8.9830    6.5410 C   0  0  0  0  0  0  0  0  0  0  0  0
    3.3170   -4.7050    5.6170 C   0  0  0  0  0  3  0  0  0  0  0  0
    4.6970   -4.2770    6.1470 C   0  0  0  0  0  2  0  0  0  0  0  0
    4.5800   -3.1400    7.1610 C   0  0  0  0  0  2  0  0  0  0  0  0
    3.8070   -1.9550    6.5910 C   0  0  0  0  0  2  0  0  0  0  0  0
    2.4350   -2.3730    6.0730 C   0  0  0  0  0  2  0  0  0  0  0  0
    2.5370   -3.5050    5.0530 C   0  0  0  0  0  2  0  0  0  0  0  0
    5.7400   -6.7780   -0.5630 C   0  0  0  0  0  0  0  0  0  0  0  0
    6.5410   -5.9270   -1.0660 O   0  0  0  0  0  1  0  0  0  0  0  0
    5.3990   -7.8820   -1.0980 O   0  0  0  0  0  0  0  0  0  0  0  0
  2 19  1  0  0  0  0
  2  1  1  0  0  0  0
  3  2  1  0  0  0  0
  4  5  1  0  0  0  0
  4  3  1  0  0  0  0
  5  6  1  0  0  0  0
  6 14  1  0  0  0  0
  7  6  2  0  0  0  0
  7 20  1  0  0  0  0
  8  7  1  0  0  0  0
  9  8  2  0  0  0  0
 10  9  1  0  0  0  0
 11 10  2  0  0  0  0
 11 12  1  0  0  0  0
 12 13  2  0  0  0  0
 13  8  1  0  0  0  0
 13  5  1  0  0  0  0
 14 15  2  0  0  0  0
 14 19  1  0  0  0  0
 15 16  1  0  0  0  0
 16 17  2  0  0  0  0
 18 17  1  0  0  0  0
 19 18  2  0  0  0  0
 20 21  1  0  0  0  0
 21 22  1  0  0  0  0
 23 22  1  0  0  0  0
 24 23  1  0  0  0  0
 25 20  1  0  0  0  0
 25 24  1  0  0  0  0
 26 11  1  0  0  0  0
 27 26  1  0  0  0  0
 28 26  2  0  0  0  0
M  END
>  <minimizedAffinity>
-7.62403536

$$$$
