
 OpenBabel09132204463D

 28 32  0  0  0  0  0  0  0  0999 V2000
    1.9570   -1.2100    6.0180 C   0  0  0  0  0  1  0  0  0  0  0  0
    2.7340   -2.4320    6.2000 N   0  0  0  0  0  0  0  0  0  0  0  0
    3.6070   -2.8080    5.0740 C   0  0  0  0  0  2  0  0  0  0  0  0
    4.5920   -3.9380    5.3370 C   0  0  0  0  0  2  0  0  0  0  0  0
    3.8660   -5.1950    5.3610 N   0  0  0  0  0  0  0  0  0  0  0  0
    2.8910   -5.4590    6.2970 C   0  0  0  0  0  0  0  0  0  0  0  0
    2.2420   -6.6270    5.8850 C   0  0  0  0  0  0  0  0  0  0  0  0
    2.9340   -7.1020    4.7120 C   0  0  0  0  0  0  0  0  0  0  0  0
    2.7850   -8.2190    3.8610 C   0  0  0  0  0  3  0  0  0  0  0  0
    3.6310   -8.3820    2.7540 C   0  0  0  0  0  3  0  0  0  0  0  0
    4.6350   -7.4530    2.4590 C   0  0  0  0  0  0  0  0  0  0  0  0
    4.7920   -6.3410    3.3040 C   0  0  0  0  0  3  0  0  0  0  0  0
    3.9420   -6.1840    4.4140 C   0  0  0  0  0  0  0  0  0  0  0  0
    2.6840   -4.5800    7.4660 C   0  0  0  0  0  0  0  0  0  0  0  0
    2.5970   -5.2130    8.7260 C   0  0  0  0  0  3  0  0  0  0  0  0
    2.3720   -4.4920    9.8940 C   0  0  0  0  0  3  0  0  0  0  0  0
    2.2400   -3.1150    9.8230 C   0  0  0  0  0  3  0  0  0  0  0  0
    2.3540   -2.4710    8.5870 C   0  0  0  0  0  3  0  0  0  0  0  0
    2.5920   -3.1640    7.3770 C   0  0  0  0  0  0  0  0  0  0  0  0
    1.0280   -7.2570    6.5330 C   0  0  0  0  0  3  0  0  0  0  0  0
   -0.2290   -7.1640    5.6490 C   0  0  0  0  0  2  0  0  0  0  0  0
   -1.4460   -7.7770    6.3400 C   0  0  0  0  0  2  0  0  0  0  0  0
   -1.1790   -9.2120    6.7830 C   0  0  0  0  0  2  0  0  0  0  0  0
    0.0610   -9.3070    7.6670 C   0  0  0  0  0  2  0  0  0  0  0  0
    1.2880   -8.7040    6.9860 C   0  0  0  0  0  2  0  0  0  0  0  0
    5.5340   -7.6330    1.2490 C   0  0  0  0  0  0  0  0  0  0  0  0
    4.9660   -7.7680    0.1180 O   0  0  0  0  0  0  0  0  0  0  0  0
    6.7910   -7.6390    1.4520 O   0  0  0  0  0  1  0  0  0  0  0  0
  1  2  1  0  0  0  0
  2 19  1  0  0  0  0
  3  4  1  0  0  0  0
  3  2  1  0  0  0  0
  4  5  1  0  0  0  0
  5  6  1  0  0  0  0
  6 14  1  0  0  0  0
  7  6  2  0  0  0  0
  7 20  1  0  0  0  0
  8  7  1  0  0  0  0
  9  8  2  0  0  0  0
 10  9  1  0  0  0  0
 11 10  2  0  0  0  0
 11 12  1  0  0  0  0
 12 13  2  0  0  0  0
 13  8  1  0  0  0  0
 13  5  1  0  0  0  0
 14 15  1  0  0  0  0
 15 16  2  0  0  0  0
 17 16  1  0  0  0  0
 18 17  2  0  0  0  0
 19 14  2  0  0  0  0
 19 18  1  0  0  0  0
 20 25  1  0  0  0  0
 21 22  1  0  0  0  0
 21 20  1  0  0  0  0
 22 23  1  0  0  0  0
 23 24  1  0  0  0  0
 25 24  1  0  0  0  0
 26 28  1  0  0  0  0
 26 11  1  0  0  0  0
 27 26  2  0  0  0  0
M  END
>  <minimizedAffinity>
-6.95204306

$$$$
