
 OpenBabel09122223593D

 28 32  0  0  0  0  0  0  0  0999 V2000
    0.6040  -10.3820    3.4830 C   0  0  0  0  0  1  0  0  0  0  0  0
    1.6440   -9.5680    4.1020 N   0  0  0  0  0  0  0  0  0  0  0  0
    1.1720   -8.3830    4.8420 C   0  0  0  0  0  2  0  0  0  0  0  0
    2.2130   -7.6590    5.6840 C   0  0  0  0  0  2  0  0  0  0  0  0
    3.0940   -6.9160    4.8010 N   0  0  0  0  0  0  0  0  0  0  0  0
    3.8870   -7.5390    3.8640 C   0  0  0  0  0  0  0  0  0  0  0  0
    4.4030   -6.5340    3.0410 C   0  0  0  0  0  0  0  0  0  0  0  0
    3.9600   -5.2740    3.5850 C   0  0  0  0  0  0  0  0  0  0  0  0
    4.1600   -3.9210    3.2350 C   0  0  0  0  0  3  0  0  0  0  0  0
    3.5470   -2.9000    3.9770 C   0  0  0  0  0  3  0  0  0  0  0  0
    2.7270   -3.1870    5.0730 C   0  0  0  0  0  0  0  0  0  0  0  0
    2.5270   -4.5310    5.4310 C   0  0  0  0  0  3  0  0  0  0  0  0
    3.1460   -5.5500    4.6840 C   0  0  0  0  0  0  0  0  0  0  0  0
    4.0610   -9.0050    3.8520 C   0  0  0  0  0  0  0  0  0  0  0  0
    5.3870   -9.4840    3.7640 C   0  0  0  0  0  3  0  0  0  0  0  0
    5.6730  -10.8440    3.7140 C   0  0  0  0  0  3  0  0  0  0  0  0
    4.6330  -11.7560    3.7610 C   0  0  0  0  0  3  0  0  0  0  0  0
    3.3160  -11.2990    3.8770 C   0  0  0  0  0  3  0  0  0  0  0  0
    2.9810   -9.9260    3.9420 C   0  0  0  0  0  0  0  0  0  0  0  0
    5.2460   -6.7330    1.7990 C   0  0  0  0  0  3  0  0  0  0  0  0
    4.4070   -6.7260    0.5080 C   0  0  0  0  0  2  0  0  0  0  0  0
    5.2760   -6.9630   -0.7260 C   0  0  0  0  0  2  0  0  0  0  0  0
    6.4280   -5.9670   -0.8020 C   0  0  0  0  0  2  0  0  0  0  0  0
    7.2680   -5.9770    0.4710 C   0  0  0  0  0  2  0  0  0  0  0  0
    6.4130   -5.7350    1.7130 C   0  0  0  0  0  2  0  0  0  0  0  0
    2.0570   -2.0740    5.8600 C   0  0  0  0  0  0  0  0  0  0  0  0
    1.2470   -1.3230    5.2280 O   0  0  0  0  0  0  0  0  0  0  0  0
    2.3570   -1.9700    7.0920 O   0  0  0  0  0  1  0  0  0  0  0  0
  1  2  1  0  0  0  0
  2  3  1  0  0  0  0
  3  4  1  0  0  0  0
  5  4  1  0  0  0  0
  6  5  1  0  0  0  0
  7  8  1  0  0  0  0
  7  6  2  0  0  0  0
  8 13  1  0  0  0  0
  9  8  2  0  0  0  0
  9 10  1  0  0  0  0
 10 11  2  0  0  0  0
 11 12  1  0  0  0  0
 11 26  1  0  0  0  0
 13  5  1  0  0  0  0
 13 12  2  0  0  0  0
 14  6  1  0  0  0  0
 14 19  1  0  0  0  0
 15 14  2  0  0  0  0
 16 17  2  0  0  0  0
 16 15  1  0  0  0  0
 17 18  1  0  0  0  0
 18 19  2  0  0  0  0
 19  2  1  0  0  0  0
 20  7  1  0  0  0  0
 21 20  1  0  0  0  0
 22 21  1  0  0  0  0
 23 22  1  0  0  0  0
 23 24  1  0  0  0  0
 24 25  1  0  0  0  0
 25 20  1  0  0  0  0
 26 28  1  0  0  0  0
 27 26  2  0  0  0  0
M  END
>  <minimizedAffinity>
-8.2039156

$$$$

 OpenBabel09122223593D

 28 32  0  0  0  0  0  0  0  0999 V2000
    1.6570   -1.8660    5.4570 C   0  0  0  0  0  1  0  0  0  0  0  0
    2.7410   -2.8370    5.3580 N   0  0  0  0  0  0  0  0  0  0  0  0
    3.3970   -2.9300    4.0400 C   0  0  0  0  0  2  0  0  0  0  0  0
    4.6710   -3.7600    3.9830 C   0  0  0  0  0  2  0  0  0  0  0  0
    4.3170   -5.1660    4.0500 N   0  0  0  0  0  0  0  0  0  0  0  0
    3.6870   -5.7110    5.1450 C   0  0  0  0  0  0  0  0  0  0  0  0
    3.2810   -6.9980    4.7790 C   0  0  0  0  0  0  0  0  0  0  0  0
    3.7810   -7.2340    3.4460 C   0  0  0  0  0  0  0  0  0  0  0  0
    3.7310   -8.3240    2.5510 C   0  0  0  0  0  3  0  0  0  0  0  0
    4.3100   -8.2210    1.2780 C   0  0  0  0  0  3  0  0  0  0  0  0
    4.9470   -7.0470    0.8590 C   0  0  0  0  0  0  0  0  0  0  0  0
    5.0050   -5.9590    1.7460 C   0  0  0  0  0  3  0  0  0  0  0  0
    4.4230   -6.0700    3.0230 C   0  0  0  0  0  0  0  0  0  0  0  0
    3.5370   -4.9550    6.4060 C   0  0  0  0  0  0  0  0  0  0  0  0
    3.9080   -5.6250    7.5930 C   0  0  0  0  0  3  0  0  0  0  0  0
    3.7830   -5.0260    8.8420 C   0  0  0  0  0  3  0  0  0  0  0  0
    3.2910   -3.7340    8.9250 C   0  0  0  0  0  3  0  0  0  0  0  0
    2.9460   -3.0470    7.7570 C   0  0  0  0  0  3  0  0  0  0  0  0
    3.0680   -3.6140    6.4670 C   0  0  0  0  0  0  0  0  0  0  0  0
    2.4530   -7.9510    5.6130 C   0  0  0  0  0  3  0  0  0  0  0  0
    1.1100   -8.3040    4.9490 C   0  0  0  0  0  2  0  0  0  0  0  0
    0.2800   -9.2400    5.8270 C   0  0  0  0  0  2  0  0  0  0  0  0
    1.0610  -10.4930    6.2100 C   0  0  0  0  0  2  0  0  0  0  0  0
    2.3890  -10.1480    6.8770 C   0  0  0  0  0  2  0  0  0  0  0  0
    3.2320   -9.2180    6.0070 C   0  0  0  0  0  2  0  0  0  0  0  0
    5.5570   -6.9420   -0.5270 C   0  0  0  0  0  0  0  0  0  0  0  0
    5.4700   -7.9650   -1.2790 O   0  0  0  0  0  0  0  0  0  0  0  0
    6.1140   -5.8400   -0.8370 O   0  0  0  0  0  1  0  0  0  0  0  0
  2  1  1  0  0  0  0
  2 19  1  0  0  0  0
  3  2  1  0  0  0  0
  4  3  1  0  0  0  0
  4  5  1  0  0  0  0
  5  6  1  0  0  0  0
  6 14  1  0  0  0  0
  7  6  2  0  0  0  0
  7 20  1  0  0  0  0
  8  7  1  0  0  0  0
  9  8  2  0  0  0  0
 10  9  1  0  0  0  0
 11 10  2  0  0  0  0
 11 12  1  0  0  0  0
 12 13  2  0  0  0  0
 13  8  1  0  0  0  0
 13  5  1  0  0  0  0
 14 19  2  0  0  0  0
 14 15  1  0  0  0  0
 15 16  2  0  0  0  0
 16 17  1  0  0  0  0
 18 17  2  0  0  0  0
 19 18  1  0  0  0  0
 20 25  1  0  0  0  0
 21 20  1  0  0  0  0
 21 22  1  0  0  0  0
 22 23  1  0  0  0  0
 23 24  1  0  0  0  0
 25 24  1  0  0  0  0
 26 11  1  0  0  0  0
 27 26  2  0  0  0  0
 28 26  1  0  0  0  0
M  END
>  <minimizedAffinity>
-7.63829041

$$$$

 OpenBabel09122223593D

 28 32  0  0  0  0  0  0  0  0999 V2000
    4.2130  -10.5720    7.1870 C   0  0  0  0  0  1  0  0  0  0  0  0
    3.5100   -9.8000    6.1680 N   0  0  0  0  0  0  0  0  0  0  0  0
    4.0250   -9.9390    4.7930 C   0  0  0  0  0  2  0  0  0  0  0  0
    3.1670   -9.3330    3.6920 C   0  0  0  0  0  2  0  0  0  0  0  0
    3.3030   -7.8880    3.7350 N   0  0  0  0  0  0  0  0  0  0  0  0
    2.9090   -7.1480    4.8260 C   0  0  0  0  0  0  0  0  0  0  0  0
    3.4010   -5.8530    4.6350 C   0  0  0  0  0  0  0  0  0  0  0  0
    4.0270   -5.8290    3.3350 C   0  0  0  0  0  0  0  0  0  0  0  0
    4.6740   -4.8350    2.5690 C   0  0  0  0  0  3  0  0  0  0  0  0
    5.2160   -5.1500    1.3140 C   0  0  0  0  0  3  0  0  0  0  0  0
    5.1360   -6.4450    0.7900 C   0  0  0  0  0  0  0  0  0  0  0  0
    4.4900   -7.4390    1.5450 C   0  0  0  0  0  3  0  0  0  0  0  0
    3.9460   -7.1150    2.8020 C   0  0  0  0  0  0  0  0  0  0  0  0
    2.1170   -7.7460    5.9200 C   0  0  0  0  0  0  0  0  0  0  0  0
    0.9700   -7.0350    6.3340 C   0  0  0  0  0  3  0  0  0  0  0  0
    0.1650   -7.4840    7.3760 C   0  0  0  0  0  3  0  0  0  0  0  0
    0.4890   -8.6660    8.0190 C   0  0  0  0  0  3  0  0  0  0  0  0
    1.6060   -9.3980    7.6020 C   0  0  0  0  0  3  0  0  0  0  0  0
    2.4450   -8.9830    6.5410 C   0  0  0  0  0  0  0  0  0  0  0  0
    3.3170   -4.7050    5.6170 C   0  0  0  0  0  3  0  0  0  0  0  0
    4.6970   -4.2770    6.1470 C   0  0  0  0  0  2  0  0  0  0  0  0
    4.5800   -3.1400    7.1610 C   0  0  0  0  0  2  0  0  0  0  0  0
    3.8070   -1.9550    6.5910 C   0  0  0  0  0  2  0  0  0  0  0  0
    2.4350   -2.3730    6.0730 C   0  0  0  0  0  2  0  0  0  0  0  0
    2.5370   -3.5050    5.0530 C   0  0  0  0  0  2  0  0  0  0  0  0
    5.7400   -6.7780   -0.5630 C   0  0  0  0  0  0  0  0  0  0  0  0
    6.5410   -5.9270   -1.0660 O   0  0  0  0  0  1  0  0  0  0  0  0
    5.3990   -7.8820   -1.0980 O   0  0  0  0  0  0  0  0  0  0  0  0
  2 19  1  0  0  0  0
  2  1  1  0  0  0  0
  3  2  1  0  0  0  0
  4  5  1  0  0  0  0
  4  3  1  0  0  0  0
  5  6  1  0  0  0  0
  6 14  1  0  0  0  0
  7  6  2  0  0  0  0
  7 20  1  0  0  0  0
  8  7  1  0  0  0  0
  9  8  2  0  0  0  0
 10  9  1  0  0  0  0
 11 10  2  0  0  0  0
 11 12  1  0  0  0  0
 12 13  2  0  0  0  0
 13  8  1  0  0  0  0
 13  5  1  0  0  0  0
 14 15  2  0  0  0  0
 14 19  1  0  0  0  0
 15 16  1  0  0  0  0
 16 17  2  0  0  0  0
 18 17  1  0  0  0  0
 19 18  2  0  0  0  0
 20 21  1  0  0  0  0
 21 22  1  0  0  0  0
 23 22  1  0  0  0  0
 24 23  1  0  0  0  0
 25 20  1  0  0  0  0
 25 24  1  0  0  0  0
 26 11  1  0  0  0  0
 27 26  1  0  0  0  0
 28 26  2  0  0  0  0
M  END
>  <minimizedAffinity>
-7.62403536

$$$$

 OpenBabel09122223593D

 28 32  0  0  0  0  0  0  0  0999 V2000
    3.0830   -3.1200    4.2060 C   0  0  0  0  0  1  0  0  0  0  0  0
    3.1170   -4.4420    4.8200 N   0  0  0  0  0  0  0  0  0  0  0  0
    3.5040   -5.5510    3.9290 C   0  0  0  0  0  2  0  0  0  0  0  0
    3.7710   -6.8900    4.6000 C   0  0  0  0  0  2  0  0  0  0  0  0
    2.5030   -7.4780    4.9940 N   0  0  0  0  0  0  0  0  0  0  0  0
    1.6690   -6.8760    5.9090 C   0  0  0  0  0  0  0  0  0  0  0  0
    0.4550   -7.5670    5.8650 C   0  0  0  0  0  0  0  0  0  0  0  0
    0.6310   -8.6700    4.9510 C   0  0  0  0  0  0  0  0  0  0  0  0
   -0.1950   -9.7240    4.5050 C   0  0  0  0  0  3  0  0  0  0  0  0
    0.2830  -10.6450    3.5610 C   0  0  0  0  0  3  0  0  0  0  0  0
    1.5760  -10.5470    3.0350 C   0  0  0  0  0  0  0  0  0  0  0  0
    2.4060   -9.5020    3.4780 C   0  0  0  0  0  3  0  0  0  0  0  0
    1.9210   -8.5830    4.4280 C   0  0  0  0  0  0  0  0  0  0  0  0
    2.1130   -5.7190    6.7130 C   0  0  0  0  0  0  0  0  0  0  0  0
    1.8740   -5.7860    8.1030 C   0  0  0  0  0  3  0  0  0  0  0  0
    2.2190   -4.7430    8.9580 C   0  0  0  0  0  3  0  0  0  0  0  0
    2.8240   -3.6130    8.4340 C   0  0  0  0  0  3  0  0  0  0  0  0
    3.0940   -3.5430    7.0640 C   0  0  0  0  0  3  0  0  0  0  0  0
    2.7690   -4.5840    6.1620 C   0  0  0  0  0  0  0  0  0  0  0  0
   -0.8100   -7.2100    6.6140 C   0  0  0  0  0  3  0  0  0  0  0  0
   -2.0020   -6.9560    5.6740 C   0  0  0  0  0  2  0  0  0  0  0  0
   -3.2570   -6.5640    6.4530 C   0  0  0  0  0  2  0  0  0  0  0  0
   -3.5990   -7.5960    7.5240 C   0  0  0  0  0  2  0  0  0  0  0  0
   -2.4230   -7.8430    8.4640 C   0  0  0  0  0  2  0  0  0  0  0  0
   -1.1630   -8.2420    7.6990 C   0  0  0  0  0  2  0  0  0  0  0  0
    2.0770  -11.5410    2.0020 C   0  0  0  0  0  0  0  0  0  0  0  0
    3.3250  -11.5400    1.7520 O   0  0  0  0  0  1  0  0  0  0  0  0
    1.2130  -12.3010    1.4580 O   0  0  0  0  0  0  0  0  0  0  0  0
  1  2  1  0  0  0  0
  2 19  1  0  0  0  0
  3  4  1  0  0  0  0
  3  2  1  0  0  0  0
  4  5  1  0  0  0  0
  5  6  1  0  0  0  0
  6 14  1  0  0  0  0
  7  6  2  0  0  0  0
  7 20  1  0  0  0  0
  8  7  1  0  0  0  0
  9  8  1  0  0  0  0
 10  9  2  0  0  0  0
 11 12  2  0  0  0  0
 11 10  1  0  0  0  0
 12 13  1  0  0  0  0
 13  8  2  0  0  0  0
 13  5  1  0  0  0  0
 14 15  1  0  0  0  0
 15 16  2  0  0  0  0
 17 16  1  0  0  0  0
 18 17  2  0  0  0  0
 19 14  2  0  0  0  0
 19 18  1  0  0  0  0
 20 25  1  0  0  0  0
 21 22  1  0  0  0  0
 21 20  1  0  0  0  0
 22 23  1  0  0  0  0
 23 24  1  0  0  0  0
 25 24  1  0  0  0  0
 26 11  1  0  0  0  0
 27 26  1  0  0  0  0
 28 26  2  0  0  0  0
M  END
>  <minimizedAffinity>
-7.03312683

$$$$

 OpenBabel09122223593D

 28 32  0  0  0  0  0  0  0  0999 V2000
    7.7950   -4.5720    1.9550 C   0  0  0  0  0  1  0  0  0  0  0  0
    6.3840   -4.8530    2.1910 N   0  0  0  0  0  0  0  0  0  0  0  0
    5.7730   -4.1440    3.3310 C   0  0  0  0  0  2  0  0  0  0  0  0
    4.2590   -4.2420    3.4490 C   0  0  0  0  0  2  0  0  0  0  0  0
    3.9110   -5.5700    3.9220 N   0  0  0  0  0  0  0  0  0  0  0  0
    4.2020   -6.7040    3.1980 C   0  0  0  0  0  0  0  0  0  0  0  0
    3.9600   -7.7940    4.0410 C   0  0  0  0  0  0  0  0  0  0  0  0
    3.4210   -7.2640    5.2690 C   0  0  0  0  0  0  0  0  0  0  0  0
    2.9630   -7.8380    6.4760 C   0  0  0  0  0  3  0  0  0  0  0  0
    2.5120   -7.0190    7.5210 C   0  0  0  0  0  3  0  0  0  0  0  0
    2.5040   -5.6240    7.4050 C   0  0  0  0  0  0  0  0  0  0  0  0
    2.9540   -5.0460    6.2060 C   0  0  0  0  0  3  0  0  0  0  0  0
    3.4030   -5.8740    5.1590 C   0  0  0  0  0  0  0  0  0  0  0  0
    4.6770   -6.6290    1.8010 C   0  0  0  0  0  0  0  0  0  0  0  0
    4.0240   -7.4610    0.8660 C   0  0  0  0  0  3  0  0  0  0  0  0
    4.4040   -7.4990   -0.4720 C   0  0  0  0  0  3  0  0  0  0  0  0
    5.4430   -6.6920   -0.9020 C   0  0  0  0  0  3  0  0  0  0  0  0
    6.0810   -5.8410    0.0060 C   0  0  0  0  0  3  0  0  0  0  0  0
    5.7200   -5.7630    1.3720 C   0  0  0  0  0  0  0  0  0  0  0  0
    4.2370   -9.2490    3.7310 C   0  0  0  0  0  3  0  0  0  0  0  0
    5.0560   -9.9430    4.8340 C   0  0  0  0  0  2  0  0  0  0  0  0
    5.3500  -11.4000    4.4800 C   0  0  0  0  0  2  0  0  0  0  0  0
    4.0730  -12.1710    4.1620 C   0  0  0  0  0  2  0  0  0  0  0  0
    3.2630  -11.4910    3.0630 C   0  0  0  0  0  2  0  0  0  0  0  0
    2.9560  -10.0350    3.4060 C   0  0  0  0  0  2  0  0  0  0  0  0
    2.0270   -4.7480    8.5490 C   0  0  0  0  0  0  0  0  0  0  0  0
    2.4100   -3.5340    8.5500 O   0  0  0  0  0  0  0  0  0  0  0  0
    1.2820   -5.2900    9.4270 O   0  0  0  0  0  1  0  0  0  0  0  0
  1  2  1  0  0  0  0
  2  3  1  0  0  0  0
  3  4  1  0  0  0  0
  4  5  1  0  0  0  0
  5 13  1  0  0  0  0
  6  5  1  0  0  0  0
  6  7  2  0  0  0  0
  7  8  1  0  0  0  0
  8  9  1  0  0  0  0
  9 10  2  0  0  0  0
 11 10  1  0  0  0  0
 11 26  1  0  0  0  0
 12 11  2  0  0  0  0
 13  8  2  0  0  0  0
 13 12  1  0  0  0  0
 14  6  1  0  0  0  0
 15 14  2  0  0  0  0
 16 15  1  0  0  0  0
 17 16  2  0  0  0  0
 17 18  1  0  0  0  0
 18 19  2  0  0  0  0
 19 14  1  0  0  0  0
 19  2  1  0  0  0  0
 20  7  1  0  0  0  0
 20 21  1  0  0  0  0
 22 21  1  0  0  0  0
 23 22  1  0  0  0  0
 24 25  1  0  0  0  0
 24 23  1  0  0  0  0
 25 20  1  0  0  0  0
 26 27  2  0  0  0  0
 26 28  1  0  0  0  0
M  END
>  <minimizedAffinity>
-7.02970552

$$$$

 OpenBabel09122223593D

 28 32  0  0  0  0  0  0  0  0999 V2000
    1.9570   -1.2100    6.0180 C   0  0  0  0  0  1  0  0  0  0  0  0
    2.7340   -2.4320    6.2000 N   0  0  0  0  0  0  0  0  0  0  0  0
    3.6070   -2.8080    5.0740 C   0  0  0  0  0  2  0  0  0  0  0  0
    4.5920   -3.9380    5.3370 C   0  0  0  0  0  2  0  0  0  0  0  0
    3.8660   -5.1950    5.3610 N   0  0  0  0  0  0  0  0  0  0  0  0
    2.8910   -5.4590    6.2970 C   0  0  0  0  0  0  0  0  0  0  0  0
    2.2420   -6.6270    5.8850 C   0  0  0  0  0  0  0  0  0  0  0  0
    2.9340   -7.1020    4.7120 C   0  0  0  0  0  0  0  0  0  0  0  0
    2.7850   -8.2190    3.8610 C   0  0  0  0  0  3  0  0  0  0  0  0
    3.6310   -8.3820    2.7540 C   0  0  0  0  0  3  0  0  0  0  0  0
    4.6350   -7.4530    2.4590 C   0  0  0  0  0  0  0  0  0  0  0  0
    4.7920   -6.3410    3.3040 C   0  0  0  0  0  3  0  0  0  0  0  0
    3.9420   -6.1840    4.4140 C   0  0  0  0  0  0  0  0  0  0  0  0
    2.6840   -4.5800    7.4660 C   0  0  0  0  0  0  0  0  0  0  0  0
    2.5970   -5.2130    8.7260 C   0  0  0  0  0  3  0  0  0  0  0  0
    2.3720   -4.4920    9.8940 C   0  0  0  0  0  3  0  0  0  0  0  0
    2.2400   -3.1150    9.8230 C   0  0  0  0  0  3  0  0  0  0  0  0
    2.3540   -2.4710    8.5870 C   0  0  0  0  0  3  0  0  0  0  0  0
    2.5920   -3.1640    7.3770 C   0  0  0  0  0  0  0  0  0  0  0  0
    1.0280   -7.2570    6.5330 C   0  0  0  0  0  3  0  0  0  0  0  0
   -0.2290   -7.1640    5.6490 C   0  0  0  0  0  2  0  0  0  0  0  0
   -1.4460   -7.7770    6.3400 C   0  0  0  0  0  2  0  0  0  0  0  0
   -1.1790   -9.2120    6.7830 C   0  0  0  0  0  2  0  0  0  0  0  0
    0.0610   -9.3070    7.6670 C   0  0  0  0  0  2  0  0  0  0  0  0
    1.2880   -8.7040    6.9860 C   0  0  0  0  0  2  0  0  0  0  0  0
    5.5340   -7.6330    1.2490 C   0  0  0  0  0  0  0  0  0  0  0  0
    4.9660   -7.7680    0.1180 O   0  0  0  0  0  0  0  0  0  0  0  0
    6.7910   -7.6390    1.4520 O   0  0  0  0  0  1  0  0  0  0  0  0
  1  2  1  0  0  0  0
  2 19  1  0  0  0  0
  3  4  1  0  0  0  0
  3  2  1  0  0  0  0
  4  5  1  0  0  0  0
  5  6  1  0  0  0  0
  6 14  1  0  0  0  0
  7  6  2  0  0  0  0
  7 20  1  0  0  0  0
  8  7  1  0  0  0  0
  9  8  2  0  0  0  0
 10  9  1  0  0  0  0
 11 10  2  0  0  0  0
 11 12  1  0  0  0  0
 12 13  2  0  0  0  0
 13  8  1  0  0  0  0
 13  5  1  0  0  0  0
 14 15  1  0  0  0  0
 15 16  2  0  0  0  0
 17 16  1  0  0  0  0
 18 17  2  0  0  0  0
 19 14  2  0  0  0  0
 19 18  1  0  0  0  0
 20 25  1  0  0  0  0
 21 22  1  0  0  0  0
 21 20  1  0  0  0  0
 22 23  1  0  0  0  0
 23 24  1  0  0  0  0
 25 24  1  0  0  0  0
 26 28  1  0  0  0  0
 26 11  1  0  0  0  0
 27 26  2  0  0  0  0
M  END
>  <minimizedAffinity>
-6.95204306

$$$$

 OpenBabel09122223593D

 28 32  0  0  0  0  0  0  0  0999 V2000
    2.1910   -2.4010    8.7060 C   0  0  0  0  0  1  0  0  0  0  0  0
    2.3510   -3.8510    8.6940 N   0  0  0  0  0  0  0  0  0  0  0  0
    3.3650   -4.3750    7.7610 C   0  0  0  0  0  2  0  0  0  0  0  0
    3.7080   -5.8510    7.9030 C   0  0  0  0  0  2  0  0  0  0  0  0
    2.6160   -6.6390    7.3610 N   0  0  0  0  0  0  0  0  0  0  0  0
    1.3490   -6.6010    7.8980 C   0  0  0  0  0  0  0  0  0  0  0  0
    0.5100   -7.2700    7.0010 C   0  0  0  0  0  0  0  0  0  0  0  0
    1.3490   -7.7920    5.9500 C   0  0  0  0  0  0  0  0  0  0  0  0
    1.1150   -8.5620    4.7900 C   0  0  0  0  0  3  0  0  0  0  0  0
    2.1760   -8.8900    3.9330 C   0  0  0  0  0  3  0  0  0  0  0  0
    3.4840   -8.4670    4.1960 C   0  0  0  0  0  0  0  0  0  0  0  0
    3.7250   -7.7040    5.3500 C   0  0  0  0  0  3  0  0  0  0  0  0
    2.6560   -7.3810    6.2080 C   0  0  0  0  0  0  0  0  0  0  0  0
    1.0770   -5.9370    9.1890 C   0  0  0  0  0  0  0  0  0  0  0  0
    0.3250   -6.6720   10.1320 C   0  0  0  0  0  3  0  0  0  0  0  0
   -0.0200   -6.1390   11.3700 C   0  0  0  0  0  3  0  0  0  0  0  0
    0.3930   -4.8580   11.6920 C   0  0  0  0  0  3  0  0  0  0  0  0
    1.1630   -4.1280   10.7820 C   0  0  0  0  0  3  0  0  0  0  0  0
    1.5450   -4.6350    9.5170 C   0  0  0  0  0  0  0  0  0  0  0  0
   -0.9940   -7.3980    7.1020 C   0  0  0  0  0  3  0  0  0  0  0  0
   -1.7140   -6.9340    5.8230 C   0  0  0  0  0  2  0  0  0  0  0  0
   -3.2320   -7.0410    5.9630 C   0  0  0  0  0  2  0  0  0  0  0  0
   -3.6610   -8.4480    6.3680 C   0  0  0  0  0  2  0  0  0  0  0  0
   -2.9570   -8.9080    7.6400 C   0  0  0  0  0  2  0  0  0  0  0  0
   -1.4380   -8.8120    7.5110 C   0  0  0  0  0  2  0  0  0  0  0  0
    4.6210   -8.8160    3.2520 C   0  0  0  0  0  0  0  0  0  0  0  0
    4.3500   -9.5850    2.2750 O   0  0  0  0  0  0  0  0  0  0  0  0
    5.7640   -8.3160    3.5070 O   0  0  0  0  0  1  0  0  0  0  0  0
  2  1  1  0  0  0  0
  2 19  1  0  0  0  0
  3  4  1  0  0  0  0
  3  2  1  0  0  0  0
  5  6  1  0  0  0  0
  5  4  1  0  0  0  0
  6 14  1  0  0  0  0
  7 20  1  0  0  0  0
  7  6  2  0  0  0  0
  8 13  1  0  0  0  0
  8  7  1  0  0  0  0
  9  8  2  0  0  0  0
 10 11  2  0  0  0  0
 10  9  1  0  0  0  0
 11 12  1  0  0  0  0
 12 13  2  0  0  0  0
 13  5  1  0  0  0  0
 14 19  2  0  0  0  0
 14 15  1  0  0  0  0
 15 16  2  0  0  0  0
 16 17  1  0  0  0  0
 18 17  2  0  0  0  0
 19 18  1  0  0  0  0
 20 25  1  0  0  0  0
 21 22  1  0  0  0  0
 21 20  1  0  0  0  0
 22 23  1  0  0  0  0
 23 24  1  0  0  0  0
 25 24  1  0  0  0  0
 26 28  1  0  0  0  0
 26 11  1  0  0  0  0
 27 26  2  0  0  0  0
M  END
>  <minimizedAffinity>
-6.86107063

$$$$

 OpenBabel09122223593D

 28 32  0  0  0  0  0  0  0  0999 V2000
    1.1430   -1.0200    4.8590 C   0  0  0  0  0  1  0  0  0  0  0  0
    2.1380   -2.0180    5.2330 N   0  0  0  0  0  0  0  0  0  0  0  0
    2.8200   -2.6920    4.1120 C   0  0  0  0  0  2  0  0  0  0  0  0
    4.0160   -3.5580    4.4780 C   0  0  0  0  0  2  0  0  0  0  0  0
    3.5370   -4.7830    5.0920 N   0  0  0  0  0  0  0  0  0  0  0  0
    2.8300   -4.7820    6.2730 C   0  0  0  0  0  0  0  0  0  0  0  0
    2.3220   -6.0740    6.4410 C   0  0  0  0  0  0  0  0  0  0  0  0
    2.8360   -6.8730    5.3550 C   0  0  0  0  0  0  0  0  0  0  0  0
    2.7140   -8.2290    4.9820 C   0  0  0  0  0  3  0  0  0  0  0  0
    3.3360   -8.7010    3.8160 C   0  0  0  0  0  3  0  0  0  0  0  0
    4.0860   -7.8510    2.9950 C   0  0  0  0  0  0  0  0  0  0  0  0
    4.2150   -6.5010    3.3620 C   0  0  0  0  0  3  0  0  0  0  0  0
    3.5910   -6.0350    4.5340 C   0  0  0  0  0  0  0  0  0  0  0  0
    2.7130   -3.5660    7.1030 C   0  0  0  0  0  0  0  0  0  0  0  0
    2.9900   -3.7100    8.4800 C   0  0  0  0  0  3  0  0  0  0  0  0
    2.8830   -2.6410    9.3650 C   0  0  0  0  0  3  0  0  0  0  0  0
    2.5060   -1.4000    8.8820 C   0  0  0  0  0  3  0  0  0  0  0  0
    2.2570   -1.2330    7.5160 C   0  0  0  0  0  3  0  0  0  0  0  0
    2.3640   -2.2900    6.5810 C   0  0  0  0  0  0  0  0  0  0  0  0
    1.3890   -6.5380    7.5380 C   0  0  0  0  0  3  0  0  0  0  0  0
    0.1080   -7.1910    6.9890 C   0  0  0  0  0  2  0  0  0  0  0  0
   -0.8300   -7.6190    8.1160 C   0  0  0  0  0  2  0  0  0  0  0  0
   -0.1270   -8.5260    9.1210 C   0  0  0  0  0  2  0  0  0  0  0  0
    1.1380   -7.8780    9.6750 C   0  0  0  0  0  2  0  0  0  0  0  0
    2.0890   -7.4510    8.5590 C   0  0  0  0  0  2  0  0  0  0  0  0
    4.7410   -8.3700    1.7280 C   0  0  0  0  0  0  0  0  0  0  0  0
    5.8060   -7.7870    1.3440 O   0  0  0  0  0  1  0  0  0  0  0  0
    4.1790   -9.3480    1.1380 O   0  0  0  0  0  0  0  0  0  0  0  0
  1  2  1  0  0  0  0
  2 19  1  0  0  0  0
  3  4  1  0  0  0  0
  3  2  1  0  0  0  0
  4  5  1  0  0  0  0
  5  6  1  0  0  0  0
  6  7  2  0  0  0  0
  6 14  1  0  0  0  0
  7 20  1  0  0  0  0
  8  7  1  0  0  0  0
  9  8  1  0  0  0  0
 10  9  2  0  0  0  0
 11 12  2  0  0  0  0
 11 10  1  0  0  0  0
 12 13  1  0  0  0  0
 13  5  1  0  0  0  0
 13  8  2  0  0  0  0
 14 15  1  0  0  0  0
 15 16  2  0  0  0  0
 17 16  1  0  0  0  0
 18 17  2  0  0  0  0
 19 14  2  0  0  0  0
 19 18  1  0  0  0  0
 20 25  1  0  0  0  0
 21 20  1  0  0  0  0
 21 22  1  0  0  0  0
 22 23  1  0  0  0  0
 23 24  1  0  0  0  0
 25 24  1  0  0  0  0
 26 11  1  0  0  0  0
 27 26  1  0  0  0  0
 28 26  2  0  0  0  0
M  END
>  <minimizedAffinity>
-6.79742193

$$$$

 OpenBabel09122223593D

 28 32  0  0  0  0  0  0  0  0999 V2000
    3.8390   -8.9580    9.5880 C   0  0  0  0  0  1  0  0  0  0  0  0
    3.2590   -8.0230    8.6310 N   0  0  0  0  0  0  0  0  0  0  0  0
    3.3230   -8.4330    7.2160 C   0  0  0  0  0  2  0  0  0  0  0  0
    2.5210   -7.5900    6.2360 C   0  0  0  0  0  2  0  0  0  0  0  0
    3.2080   -6.3270    6.0340 N   0  0  0  0  0  0  0  0  0  0  0  0
    3.4110   -5.4320    7.0610 C   0  0  0  0  0  0  0  0  0  0  0  0
    4.3000   -4.4640    6.5830 C   0  0  0  0  0  0  0  0  0  0  0  0
    4.5450   -4.7680    5.1930 C   0  0  0  0  0  0  0  0  0  0  0  0
    5.3140   -4.1680    4.1720 C   0  0  0  0  0  3  0  0  0  0  0  0
    5.3640   -4.7440    2.8940 C   0  0  0  0  0  3  0  0  0  0  0  0
    4.6660   -5.9190    2.5960 C   0  0  0  0  0  0  0  0  0  0  0  0
    3.8960   -6.5200    3.6060 C   0  0  0  0  0  3  0  0  0  0  0  0
    3.8470   -5.9350    4.8860 C   0  0  0  0  0  0  0  0  0  0  0  0
    2.7480   -5.5960    8.3700 C   0  0  0  0  0  0  0  0  0  0  0  0
    2.1030   -4.4560    8.8990 C   0  0  0  0  0  3  0  0  0  0  0  0
    1.4710   -4.4800   10.1390 C   0  0  0  0  0  3  0  0  0  0  0  0
    1.4650   -5.6560   10.8700 C   0  0  0  0  0  3  0  0  0  0  0  0
    2.0740   -6.8010   10.3480 C   0  0  0  0  0  3  0  0  0  0  0  0
    2.7170   -6.8230    9.0880 C   0  0  0  0  0  0  0  0  0  0  0  0
    4.9090   -3.3310    7.3790 C   0  0  0  0  0  3  0  0  0  0  0  0
    6.4470   -3.3850    7.4050 C   0  0  0  0  0  2  0  0  0  0  0  0
    7.0340   -2.2510    8.2430 C   0  0  0  0  0  2  0  0  0  0  0  0
    6.5300   -0.8880    7.7780 C   0  0  0  0  0  2  0  0  0  0  0  0
    5.0060   -0.8270    7.7600 C   0  0  0  0  0  2  0  0  0  0  0  0
    4.4050   -1.9520    6.9200 C   0  0  0  0  0  2  0  0  0  0  0  0
    4.7410   -6.5420    1.2130 C   0  0  0  0  0  0  0  0  0  0  0  0
    4.6780   -5.7520    0.2170 O   0  0  0  0  0  0  0  0  0  0  0  0
    4.8570   -7.8080    1.1490 O   0  0  0  0  0  1  0  0  0  0  0  0
  2 19  1  0  0  0  0
  2  1  1  0  0  0  0
  3  2  1  0  0  0  0
  4  3  1  0  0  0  0
  5  4  1  0  0  0  0
  5  6  1  0  0  0  0
  6 14  1  0  0  0  0
  7  6  2  0  0  0  0
  7 20  1  0  0  0  0
  8  7  1  0  0  0  0
  9  8  2  0  0  0  0
 10  9  1  0  0  0  0
 11 10  2  0  0  0  0
 11 12  1  0  0  0  0
 12 13  2  0  0  0  0
 13  8  1  0  0  0  0
 13  5  1  0  0  0  0
 14 15  2  0  0  0  0
 14 19  1  0  0  0  0
 15 16  1  0  0  0  0
 16 17  2  0  0  0  0
 18 17  1  0  0  0  0
 19 18  2  0  0  0  0
 20 21  1  0  0  0  0
 21 22  1  0  0  0  0
 23 22  1  0  0  0  0
 24 23  1  0  0  0  0
 25 20  1  0  0  0  0
 25 24  1  0  0  0  0
 26 11  1  0  0  0  0
 27 26  2  0  0  0  0
 28 26  1  0  0  0  0
M  END
>  <minimizedAffinity>
-6.67949772

$$$$

 OpenBabel09122223593D

 28 32  0  0  0  0  0  0  0  0999 V2000
    2.3130   -8.8130    0.0000 C   0  0  0  0  0  1  0  0  0  0  0  0
    3.2050   -8.7430    1.1520 N   0  0  0  0  0  0  0  0  0  0  0  0
    2.9610   -9.7410    2.2110 C   0  0  0  0  0  2  0  0  0  0  0  0
    4.0190   -9.8350    3.3000 C   0  0  0  0  0  2  0  0  0  0  0  0
    3.8920   -8.6840    4.1770 N   0  0  0  0  0  0  0  0  0  0  0  0
    4.0780   -7.3970    3.7260 C   0  0  0  0  0  0  0  0  0  0  0  0
    3.6440   -6.5450    4.7470 C   0  0  0  0  0  0  0  0  0  0  0  0
    3.2780   -7.3800    5.8650 C   0  0  0  0  0  0  0  0  0  0  0  0
    2.7990   -7.1310    7.1690 C   0  0  0  0  0  3  0  0  0  0  0  0
    2.5030   -8.1980    8.0300 C   0  0  0  0  0  3  0  0  0  0  0  0
    2.6690   -9.5280    7.6270 C   0  0  0  0  0  0  0  0  0  0  0  0
    3.1490   -9.7840    6.3320 C   0  0  0  0  0  3  0  0  0  0  0  0
    3.4460   -8.7090    5.4740 C   0  0  0  0  0  0  0  0  0  0  0  0
    4.6400   -7.1200    2.3880 C   0  0  0  0  0  0  0  0  0  0  0  0
    5.6940   -6.1830    2.3260 C   0  0  0  0  0  3  0  0  0  0  0  0
    6.2810   -5.8190    1.1180 C   0  0  0  0  0  3  0  0  0  0  0  0
    5.8280   -6.3990   -0.0540 C   0  0  0  0  0  3  0  0  0  0  0  0
    4.8040   -7.3500   -0.0070 C   0  0  0  0  0  3  0  0  0  0  0  0
    4.1870   -7.7560    1.2000 C   0  0  0  0  0  0  0  0  0  0  0  0
    3.5510   -5.0360    4.6800 C   0  0  0  0  0  3  0  0  0  0  0  0
    2.0980   -4.5300    4.7240 C   0  0  0  0  0  2  0  0  0  0  0  0
    2.0310   -3.0080    4.6200 C   0  0  0  0  0  2  0  0  0  0  0  0
    2.8910   -2.3330    5.6850 C   0  0  0  0  0  2  0  0  0  0  0  0
    4.3340   -2.8240    5.6390 C   0  0  0  0  0  2  0  0  0  0  0  0
    4.4160   -4.3460    5.7480 C   0  0  0  0  0  2  0  0  0  0  0  0
    2.3310  -10.6750    8.5630 C   0  0  0  0  0  0  0  0  0  0  0  0
    1.3730  -10.4930    9.3820 O   0  0  0  0  0  1  0  0  0  0  0  0
    3.0310  -11.7330    8.4650 O   0  0  0  0  0  0  0  0  0  0  0  0
  1  2  1  0  0  0  0
  2 19  1  0  0  0  0
  2  3  1  0  0  0  0
  3  4  1  0  0  0  0
  4  5  1  0  0  0  0
  5 13  1  0  0  0  0
  6  5  1  0  0  0  0
  6  7  2  0  0  0  0
  7  8  1  0  0  0  0
  8  9  1  0  0  0  0
  9 10  2  0  0  0  0
 11 10  1  0  0  0  0
 11 26  1  0  0  0  0
 12 11  2  0  0  0  0
 13  8  2  0  0  0  0
 13 12  1  0  0  0  0
 14  6  1  0  0  0  0
 15 14  1  0  0  0  0
 16 15  2  0  0  0  0
 17 18  2  0  0  0  0
 17 16  1  0  0  0  0
 18 19  1  0  0  0  0
 19 14  2  0  0  0  0
 20 21  1  0  0  0  0
 20  7  1  0  0  0  0
 20 25  1  0  0  0  0
 22 21  1  0  0  0  0
 22 23  1  0  0  0  0
 24 23  1  0  0  0  0
 24 25  1  0  0  0  0
 26 27  1  0  0  0  0
 28 26  2  0  0  0  0
M  END
>  <minimizedAffinity>
-6.66905165

$$$$
