
 OpenBabel09132204463D

 28 32  0  0  0  0  0  0  0  0999 V2000
    2.3130   -8.8130    0.0000 C   0  0  0  0  0  1  0  0  0  0  0  0
    3.2050   -8.7430    1.1520 N   0  0  0  0  0  0  0  0  0  0  0  0
    2.9610   -9.7410    2.2110 C   0  0  0  0  0  2  0  0  0  0  0  0
    4.0190   -9.8350    3.3000 C   0  0  0  0  0  2  0  0  0  0  0  0
    3.8920   -8.6840    4.1770 N   0  0  0  0  0  0  0  0  0  0  0  0
    4.0780   -7.3970    3.7260 C   0  0  0  0  0  0  0  0  0  0  0  0
    3.6440   -6.5450    4.7470 C   0  0  0  0  0  0  0  0  0  0  0  0
    3.2780   -7.3800    5.8650 C   0  0  0  0  0  0  0  0  0  0  0  0
    2.7990   -7.1310    7.1690 C   0  0  0  0  0  3  0  0  0  0  0  0
    2.5030   -8.1980    8.0300 C   0  0  0  0  0  3  0  0  0  0  0  0
    2.6690   -9.5280    7.6270 C   0  0  0  0  0  0  0  0  0  0  0  0
    3.1490   -9.7840    6.3320 C   0  0  0  0  0  3  0  0  0  0  0  0
    3.4460   -8.7090    5.4740 C   0  0  0  0  0  0  0  0  0  0  0  0
    4.6400   -7.1200    2.3880 C   0  0  0  0  0  0  0  0  0  0  0  0
    5.6940   -6.1830    2.3260 C   0  0  0  0  0  3  0  0  0  0  0  0
    6.2810   -5.8190    1.1180 C   0  0  0  0  0  3  0  0  0  0  0  0
    5.8280   -6.3990   -0.0540 C   0  0  0  0  0  3  0  0  0  0  0  0
    4.8040   -7.3500   -0.0070 C   0  0  0  0  0  3  0  0  0  0  0  0
    4.1870   -7.7560    1.2000 C   0  0  0  0  0  0  0  0  0  0  0  0
    3.5510   -5.0360    4.6800 C   0  0  0  0  0  3  0  0  0  0  0  0
    2.0980   -4.5300    4.7240 C   0  0  0  0  0  2  0  0  0  0  0  0
    2.0310   -3.0080    4.6200 C   0  0  0  0  0  2  0  0  0  0  0  0
    2.8910   -2.3330    5.6850 C   0  0  0  0  0  2  0  0  0  0  0  0
    4.3340   -2.8240    5.6390 C   0  0  0  0  0  2  0  0  0  0  0  0
    4.4160   -4.3460    5.7480 C   0  0  0  0  0  2  0  0  0  0  0  0
    2.3310  -10.6750    8.5630 C   0  0  0  0  0  0  0  0  0  0  0  0
    1.3730  -10.4930    9.3820 O   0  0  0  0  0  1  0  0  0  0  0  0
    3.0310  -11.7330    8.4650 O   0  0  0  0  0  0  0  0  0  0  0  0
  1  2  1  0  0  0  0
  2 19  1  0  0  0  0
  2  3  1  0  0  0  0
  3  4  1  0  0  0  0
  4  5  1  0  0  0  0
  5 13  1  0  0  0  0
  6  5  1  0  0  0  0
  6  7  2  0  0  0  0
  7  8  1  0  0  0  0
  8  9  1  0  0  0  0
  9 10  2  0  0  0  0
 11 10  1  0  0  0  0
 11 26  1  0  0  0  0
 12 11  2  0  0  0  0
 13  8  2  0  0  0  0
 13 12  1  0  0  0  0
 14  6  1  0  0  0  0
 15 14  1  0  0  0  0
 16 15  2  0  0  0  0
 17 18  2  0  0  0  0
 17 16  1  0  0  0  0
 18 19  1  0  0  0  0
 19 14  2  0  0  0  0
 20 21  1  0  0  0  0
 20  7  1  0  0  0  0
 20 25  1  0  0  0  0
 22 21  1  0  0  0  0
 22 23  1  0  0  0  0
 24 23  1  0  0  0  0
 24 25  1  0  0  0  0
 26 27  1  0  0  0  0
 28 26  2  0  0  0  0
M  END
>  <minimizedAffinity>
-6.66905165

$$$$
