
 OpenBabel09132204463D

 28 32  0  0  0  0  0  0  0  0999 V2000
    1.1430   -1.0200    4.8590 C   0  0  0  0  0  1  0  0  0  0  0  0
    2.1380   -2.0180    5.2330 N   0  0  0  0  0  0  0  0  0  0  0  0
    2.8200   -2.6920    4.1120 C   0  0  0  0  0  2  0  0  0  0  0  0
    4.0160   -3.5580    4.4780 C   0  0  0  0  0  2  0  0  0  0  0  0
    3.5370   -4.7830    5.0920 N   0  0  0  0  0  0  0  0  0  0  0  0
    2.8300   -4.7820    6.2730 C   0  0  0  0  0  0  0  0  0  0  0  0
    2.3220   -6.0740    6.4410 C   0  0  0  0  0  0  0  0  0  0  0  0
    2.8360   -6.8730    5.3550 C   0  0  0  0  0  0  0  0  0  0  0  0
    2.7140   -8.2290    4.9820 C   0  0  0  0  0  3  0  0  0  0  0  0
    3.3360   -8.7010    3.8160 C   0  0  0  0  0  3  0  0  0  0  0  0
    4.0860   -7.8510    2.9950 C   0  0  0  0  0  0  0  0  0  0  0  0
    4.2150   -6.5010    3.3620 C   0  0  0  0  0  3  0  0  0  0  0  0
    3.5910   -6.0350    4.5340 C   0  0  0  0  0  0  0  0  0  0  0  0
    2.7130   -3.5660    7.1030 C   0  0  0  0  0  0  0  0  0  0  0  0
    2.9900   -3.7100    8.4800 C   0  0  0  0  0  3  0  0  0  0  0  0
    2.8830   -2.6410    9.3650 C   0  0  0  0  0  3  0  0  0  0  0  0
    2.5060   -1.4000    8.8820 C   0  0  0  0  0  3  0  0  0  0  0  0
    2.2570   -1.2330    7.5160 C   0  0  0  0  0  3  0  0  0  0  0  0
    2.3640   -2.2900    6.5810 C   0  0  0  0  0  0  0  0  0  0  0  0
    1.3890   -6.5380    7.5380 C   0  0  0  0  0  3  0  0  0  0  0  0
    0.1080   -7.1910    6.9890 C   0  0  0  0  0  2  0  0  0  0  0  0
   -0.8300   -7.6190    8.1160 C   0  0  0  0  0  2  0  0  0  0  0  0
   -0.1270   -8.5260    9.1210 C   0  0  0  0  0  2  0  0  0  0  0  0
    1.1380   -7.8780    9.6750 C   0  0  0  0  0  2  0  0  0  0  0  0
    2.0890   -7.4510    8.5590 C   0  0  0  0  0  2  0  0  0  0  0  0
    4.7410   -8.3700    1.7280 C   0  0  0  0  0  0  0  0  0  0  0  0
    5.8060   -7.7870    1.3440 O   0  0  0  0  0  1  0  0  0  0  0  0
    4.1790   -9.3480    1.1380 O   0  0  0  0  0  0  0  0  0  0  0  0
  1  2  1  0  0  0  0
  2 19  1  0  0  0  0
  3  4  1  0  0  0  0
  3  2  1  0  0  0  0
  4  5  1  0  0  0  0
  5  6  1  0  0  0  0
  6  7  2  0  0  0  0
  6 14  1  0  0  0  0
  7 20  1  0  0  0  0
  8  7  1  0  0  0  0
  9  8  1  0  0  0  0
 10  9  2  0  0  0  0
 11 12  2  0  0  0  0
 11 10  1  0  0  0  0
 12 13  1  0  0  0  0
 13  5  1  0  0  0  0
 13  8  2  0  0  0  0
 14 15  1  0  0  0  0
 15 16  2  0  0  0  0
 17 16  1  0  0  0  0
 18 17  2  0  0  0  0
 19 14  2  0  0  0  0
 19 18  1  0  0  0  0
 20 25  1  0  0  0  0
 21 20  1  0  0  0  0
 21 22  1  0  0  0  0
 22 23  1  0  0  0  0
 23 24  1  0  0  0  0
 25 24  1  0  0  0  0
 26 11  1  0  0  0  0
 27 26  1  0  0  0  0
 28 26  2  0  0  0  0
M  END
>  <minimizedAffinity>
-6.79742193

$$$$
