
 OpenBabel09122222393D

 32 35  0  0  0  0  0  0  0  0999 V2000
    6.0710   -2.0750    7.0570 C   0  0  0  0  0  0  0  0  0  0  0  0
    5.8010   -0.8170    7.5450 C   0  0  0  0  0  3  0  0  0  0  0  0
    6.9110   -0.0190    7.7800 N   0  0  0  0  0  0  0  0  0  0  0  0
    7.9970   -0.6570    7.4040 C   0  0  0  0  0  0  0  0  0  0  0  0
    9.2830   -0.1140    7.4860 N   0  0  0  0  0  0  0  0  0  0  0  0
   10.3400   -0.5800    6.6760 C   0  0  0  0  0  0  0  0  0  0  0  0
   11.5280   -0.4810    6.9880 O   0  0  0  0  0  0  0  0  0  0  0  0
    7.7560   -2.3020    6.9730 S   0  0  0  0  0  0  0  0  0  0  0  0
    9.6050    0.9750    8.4340 C   0  0  0  0  0  3  0  0  0  0  0  0
    8.5680    1.1520    9.5630 C   0  0  0  0  0  2  0  0  0  0  0  0
    7.4610    2.1670    9.3290 C   0  0  0  0  0  2  0  0  0  0  0  0
    8.1170    3.7500    8.8680 S   0  0  0  0  0  0  0  0  0  0  0  0
    7.0240    4.6060    8.4520 O   0  0  0  0  0  0  0  0  0  0  0  0
    9.0210    4.1830    9.9200 O   0  0  0  0  0  0  0  0  0  0  0  0
    9.0960    3.3490    7.4450 C   0  0  0  0  0  2  0  0  0  0  0  0
   10.1150    2.2620    7.7480 C   0  0  0  0  0  2  0  0  0  0  0  0
   10.0670   -1.0950    5.3070 C   0  0  0  0  0  0  0  0  0  0  0  0
   10.2320   -2.4640    5.0570 C   0  0  0  0  0  3  0  0  0  0  0  0
    9.8870   -2.9860    3.8110 C   0  0  0  0  0  3  0  0  0  0  0  0
    9.3840   -2.1360    2.8250 C   0  0  0  0  0  0  0  0  0  0  0  0
    9.3090   -0.7570    3.0370 C   0  0  0  0  0  3  0  0  0  0  0  0
    9.6530   -0.2320    4.2820 C   0  0  0  0  0  3  0  0  0  0  0  0
    8.9880   -2.6960    1.6340 O   0  0  0  0  0  0  0  0  0  0  0  0
    9.8410   -2.5330    0.5600 C   0  0  0  0  0  0  0  0  0  0  0  0
   10.6980   -3.5300    0.0840 C   0  0  0  0  0  3  0  0  0  0  0  0
   11.5300   -3.2730   -1.0080 C   0  0  0  0  0  3  0  0  0  0  0  0
   11.5220   -2.0170   -1.6110 C   0  0  0  0  0  3  0  0  0  0  0  0
   10.6870   -1.0120   -1.1210 C   0  0  0  0  0  3  0  0  0  0  0  0
    9.8500   -1.2680   -0.0340 C   0  0  0  0  0  3  0  0  0  0  0  0
    5.2960   -4.2710    6.9470 O   0  0  0  0  0  1  0  0  0  0  0  0
    5.0410   -3.0580    6.6770 C   0  0  0  0  0  0  0  0  0  0  0  0
    3.9860   -2.6120    6.1330 O   0  0  0  0  0  0  0  0  0  0  0  0
  1  2  2  0  0  0  0
  2  3  1  0  0  0  0
  4  5  1  0  0  0  0
  4  3  2  0  0  0  0
  5  9  1  0  0  0  0
  6  7  2  0  0  0  0
  6  5  1  0  0  0  0
  8  1  1  0  0  0  0
  8  4  1  0  0  0  0
  9 10  1  0  0  0  0
 11 10  1  0  0  0  0
 12 11  1  0  0  0  0
 12 14  2  0  0  0  0
 13 12  2  0  0  0  0
 15 16  1  0  0  0  0
 15 12  1  0  0  0  0
 16  9  1  0  0  0  0
 17  6  1  0  0  0  0
 18 17  1  0  0  0  0
 19 18  2  0  0  0  0
 20 21  2  0  0  0  0
 20 19  1  0  0  0  0
 21 22  1  0  0  0  0
 22 17  2  0  0  0  0
 23 20  1  0  0  0  0
 24 23  1  0  0  0  0
 25 24  1  0  0  0  0
 26 25  2  0  0  0  0
 27 28  2  0  0  0  0
 27 26  1  0  0  0  0
 28 29  1  0  0  0  0
 29 24  2  0  0  0  0
 31 30  1  0  0  0  0
 31  1  1  0  0  0  0
 32 31  2  0  0  0  0
M  END
>  <minimizedAffinity>
-7.15124655

$$$$
