
 OpenBabel09122222393D

 32 35  0  0  0  0  0  0  0  0999 V2000
    5.2200   -3.7530    5.1980 C   0  0  0  0  0  0  0  0  0  0  0  0
    6.5440   -3.5750    5.5310 C   0  0  0  0  0  3  0  0  0  0  0  0
    6.7740   -2.8330    6.6810 N   0  0  0  0  0  0  0  0  0  0  0  0
    5.6260   -2.5190    7.2370 C   0  0  0  0  0  0  0  0  0  0  0  0
    5.5130   -1.7940    8.4280 N   0  0  0  0  0  0  0  0  0  0  0  0
    4.3620   -1.8710    9.2390 C   0  0  0  0  0  0  0  0  0  0  0  0
    4.0150   -0.9750   10.0110 O   0  0  0  0  0  0  0  0  0  0  0  0
    4.2390   -2.8980    6.2960 S   0  0  0  0  0  0  0  0  0  0  0  0
    6.5950   -0.9000    8.8950 C   0  0  0  0  0  3  0  0  0  0  0  0
    7.2170   -0.0310    7.7810 C   0  0  0  0  0  2  0  0  0  0  0  0
    8.4560   -0.5800    7.0910 C   0  0  0  0  0  2  0  0  0  0  0  0
    9.7070   -1.0310    8.2640 S   0  0  0  0  0  0  0  0  0  0  0  0
   10.7650   -1.7400    7.5710 O   0  0  0  0  0  0  0  0  0  0  0  0
   10.0180    0.1430    9.0610 O   0  0  0  0  0  0  0  0  0  0  0  0
    8.8460   -2.1780    9.3070 C   0  0  0  0  0  2  0  0  0  0  0  0
    7.5740   -1.5750    9.8810 C   0  0  0  0  0  2  0  0  0  0  0  0
    3.5750   -3.1320    9.3090 C   0  0  0  0  0  0  0  0  0  0  0  0
    4.2620   -4.3480    9.4250 C   0  0  0  0  0  3  0  0  0  0  0  0
    3.5460   -5.5330    9.5920 C   0  0  0  0  0  3  0  0  0  0  0  0
    2.1520   -5.4930    9.6400 C   0  0  0  0  0  0  0  0  0  0  0  0
    1.4610   -4.2970    9.4290 C   0  0  0  0  0  3  0  0  0  0  0  0
    2.1740   -3.1110    9.2610 C   0  0  0  0  0  3  0  0  0  0  0  0
    1.4820   -6.6700    9.8790 O   0  0  0  0  0  0  0  0  0  0  0  0
    0.4990   -7.0170    8.9720 C   0  0  0  0  0  0  0  0  0  0  0  0
   -0.8070   -7.3660    9.3300 C   0  0  0  0  0  3  0  0  0  0  0  0
   -1.7340   -7.7070    8.3430 C   0  0  0  0  0  3  0  0  0  0  0  0
   -1.3530   -7.7190    7.0020 C   0  0  0  0  0  3  0  0  0  0  0  0
   -0.0430   -7.3970    6.6450 C   0  0  0  0  0  3  0  0  0  0  0  0
    0.8840   -7.0500    7.6300 C   0  0  0  0  0  3  0  0  0  0  0  0
    5.1680   -5.7570    4.0090 O   0  0  0  0  0  1  0  0  0  0  0  0
    4.7510   -4.5590    4.0580 C   0  0  0  0  0  0  0  0  0  0  0  0
    3.9620   -4.0000    3.2370 O   0  0  0  0  0  0  0  0  0  0  0  0
  1  2  2  0  0  0  0
  1  8  1  0  0  0  0
  2  3  1  0  0  0  0
  3  4  2  0  0  0  0
  4  5  1  0  0  0  0
  5  9  1  0  0  0  0
  5  6  1  0  0  0  0
  6 17  1  0  0  0  0
  6  7  2  0  0  0  0
  8  4  1  0  0  0  0
  9 16  1  0  0  0  0
 10  9  1  0  0  0  0
 11 10  1  0  0  0  0
 11 12  1  0  0  0  0
 12 14  2  0  0  0  0
 12 15  1  0  0  0  0
 13 12  2  0  0  0  0
 15 16  1  0  0  0  0
 17 18  1  0  0  0  0
 18 19  2  0  0  0  0
 19 20  1  0  0  0  0
 20 23  1  0  0  0  0
 21 20  2  0  0  0  0
 22 17  2  0  0  0  0
 22 21  1  0  0  0  0
 24 25  1  0  0  0  0
 24 23  1  0  0  0  0
 26 25  2  0  0  0  0
 27 26  1  0  0  0  0
 28 27  2  0  0  0  0
 28 29  1  0  0  0  0
 29 24  2  0  0  0  0
 30 31  1  0  0  0  0
 31  1  1  0  0  0  0
 32 31  2  0  0  0  0
M  END
>  <minimizedAffinity>
-6.43726778

$$$$
