
 OpenBabel09122222393D

 32 35  0  0  0  0  0  0  0  0999 V2000
   10.5010    2.7820    1.6600 C   0  0  0  0  0  0  0  0  0  0  0  0
   11.5290    3.1640    2.4910 C   0  0  0  0  0  3  0  0  0  0  0  0
   11.5260    2.5800    3.7500 N   0  0  0  0  0  0  0  0  0  0  0  0
   10.5380    1.7180    3.8310 C   0  0  0  0  0  0  0  0  0  0  0  0
   10.2770    0.9410    4.9640 N   0  0  0  0  0  0  0  0  0  0  0  0
    9.5570   -0.2690    4.8850 C   0  0  0  0  0  0  0  0  0  0  0  0
    8.9280   -0.7470    5.8320 O   0  0  0  0  0  0  0  0  0  0  0  0
    9.4510    1.7370    2.5000 S   0  0  0  0  0  0  0  0  0  0  0  0
   10.7350    1.3550    6.3080 C   0  0  0  0  0  3  0  0  0  0  0  0
   11.5300    0.2680    7.0630 C   0  0  0  0  0  2  0  0  0  0  0  0
   10.7440   -0.6340    8.0000 C   0  0  0  0  0  2  0  0  0  0  0  0
    9.7810    0.3090    9.1530 S   0  0  0  0  0  0  0  0  0  0  0  0
    8.8970   -0.5910    9.8700 O   0  0  0  0  0  0  0  0  0  0  0  0
   10.6840    1.1790    9.8860 O   0  0  0  0  0  0  0  0  0  0  0  0
    8.8030    1.3260    8.0800 C   0  0  0  0  0  2  0  0  0  0  0  0
    9.6670    2.1250    7.1160 C   0  0  0  0  0  2  0  0  0  0  0  0
    9.6480   -1.1210    3.6690 C   0  0  0  0  0  0  0  0  0  0  0  0
   10.5140   -2.2230    3.6820 C   0  0  0  0  0  3  0  0  0  0  0  0
   10.5430   -3.0920    2.5920 C   0  0  0  0  0  3  0  0  0  0  0  0
    9.7100   -2.8520    1.4990 C   0  0  0  0  0  0  0  0  0  0  0  0
    8.9170   -1.7030    1.4400 C   0  0  0  0  0  3  0  0  0  0  0  0
    8.8860   -0.8320    2.5280 C   0  0  0  0  0  3  0  0  0  0  0  0
    9.7130   -3.7690    0.4740 O   0  0  0  0  0  0  0  0  0  0  0  0
    8.5570   -4.5060    0.3010 C   0  0  0  0  0  0  0  0  0  0  0  0
    7.8310   -5.0800    1.3490 C   0  0  0  0  0  3  0  0  0  0  0  0
    6.6750   -5.8130    1.0780 C   0  0  0  0  0  3  0  0  0  0  0  0
    6.2540   -5.9920   -0.2390 C   0  0  0  0  0  3  0  0  0  0  0  0
    6.9920   -5.4430   -1.2880 C   0  0  0  0  0  3  0  0  0  0  0  0
    8.1450   -4.7040   -1.0190 C   0  0  0  0  0  3  0  0  0  0  0  0
    9.6110    4.2400    0.0740 O   0  0  0  0  0  1  0  0  0  0  0  0
   10.3510    3.2270    0.2640 C   0  0  0  0  0  0  0  0  0  0  0  0
   10.9830    2.5780   -0.6230 O   0  0  0  0  0  0  0  0  0  0  0  0
  1  2  2  0  0  0  0
  1  8  1  0  0  0  0
  2  3  1  0  0  0  0
  3  4  2  0  0  0  0
  4  5  1  0  0  0  0
  5  9  1  0  0  0  0
  6  5  1  0  0  0  0
  6  7  2  0  0  0  0
  8  4  1  0  0  0  0
  9 10  1  0  0  0  0
  9 16  1  0  0  0  0
 10 11  1  0  0  0  0
 11 12  1  0  0  0  0
 12 13  2  0  0  0  0
 12 14  2  0  0  0  0
 15 12  1  0  0  0  0
 16 15  1  0  0  0  0
 17 18  1  0  0  0  0
 17  6  1  0  0  0  0
 19 18  2  0  0  0  0
 20 19  1  0  0  0  0
 21 20  2  0  0  0  0
 21 22  1  0  0  0  0
 22 17  2  0  0  0  0
 23 20  1  0  0  0  0
 24 23  1  0  0  0  0
 24 25  1  0  0  0  0
 26 25  2  0  0  0  0
 27 26  1  0  0  0  0
 28 29  1  0  0  0  0
 28 27  2  0  0  0  0
 29 24  2  0  0  0  0
 30 31  1  0  0  0  0
 31  1  1  0  0  0  0
 32 31  2  0  0  0  0
M  END
>  <minimizedAffinity>
-6.67698336

$$$$
