
 OpenBabel09122222393D

 32 35  0  0  0  0  0  0  0  0999 V2000
    4.9090   -3.7650    4.4340 C   0  0  0  0  0  0  0  0  0  0  0  0
    4.8640   -5.1220    4.2140 C   0  0  0  0  0  3  0  0  0  0  0  0
    5.6470   -5.5810    3.1640 N   0  0  0  0  0  0  0  0  0  0  0  0
    6.3220   -4.5790    2.6490 C   0  0  0  0  0  0  0  0  0  0  0  0
    7.2240   -4.7140    1.5890 N   0  0  0  0  0  0  0  0  0  0  0  0
    8.2570   -3.7790    1.3680 C   0  0  0  0  0  0  0  0  0  0  0  0
    8.7720   -3.5860    0.2650 O   0  0  0  0  0  0  0  0  0  0  0  0
    5.8810   -3.0290    3.2450 S   0  0  0  0  0  0  0  0  0  0  0  0
    7.1370   -5.8430    0.6380 C   0  0  0  0  0  3  0  0  0  0  0  0
    6.1130   -5.6300   -0.4980 C   0  0  0  0  0  2  0  0  0  0  0  0
    4.7130   -6.1770   -0.2730 C   0  0  0  0  0  2  0  0  0  0  0  0
    4.7500   -7.8910    0.1820 S   0  0  0  0  0  0  0  0  0  0  0  0
    3.4190   -8.2960    0.5890 O   0  0  0  0  0  0  0  0  0  0  0  0
    5.4440   -8.6190   -0.8670 O   0  0  0  0  0  0  0  0  0  0  0  0
    5.7990   -7.8750    1.6120 C   0  0  0  0  0  2  0  0  0  0  0  0
    7.1440   -7.2290    1.3200 C   0  0  0  0  0  2  0  0  0  0  0  0
    8.8880   -3.0700    2.5150 C   0  0  0  0  0  0  0  0  0  0  0  0
    9.0120   -1.6750    2.4580 C   0  0  0  0  0  3  0  0  0  0  0  0
    9.5080   -0.9800    3.5600 C   0  0  0  0  0  3  0  0  0  0  0  0
    9.8770   -1.6830    4.7070 C   0  0  0  0  0  0  0  0  0  0  0  0
    9.8460   -3.0800    4.7330 C   0  0  0  0  0  3  0  0  0  0  0  0
    9.3510   -3.7780    3.6330 C   0  0  0  0  0  3  0  0  0  0  0  0
   10.2940   -0.9590    5.7990 O   0  0  0  0  0  0  0  0  0  0  0  0
    9.3070   -0.4980    6.6480 C   0  0  0  0  0  0  0  0  0  0  0  0
    8.1430   -1.2100    6.9560 C   0  0  0  0  0  3  0  0  0  0  0  0
    7.1970   -0.6610    7.8230 C   0  0  0  0  0  3  0  0  0  0  0  0
    7.4000    0.6060    8.3670 C   0  0  0  0  0  3  0  0  0  0  0  0
    8.5470    1.3300    8.0400 C   0  0  0  0  0  3  0  0  0  0  0  0
    9.4980    0.7810    7.1780 C   0  0  0  0  0  3  0  0  0  0  0  0
    4.7450   -3.1630    6.6800 O   0  0  0  0  0  1  0  0  0  0  0  0
    4.2100   -3.0770    5.5330 C   0  0  0  0  0  0  0  0  0  0  0  0
    3.1490   -2.4470    5.2410 O   0  0  0  0  0  0  0  0  0  0  0  0
  1 31  1  0  0  0  0
  2  1  2  0  0  0  0
  3  2  1  0  0  0  0
  4  3  2  0  0  0  0
  4  8  1  0  0  0  0
  5  4  1  0  0  0  0
  6  5  1  0  0  0  0
  6 17  1  0  0  0  0
  7  6  2  0  0  0  0
  8  1  1  0  0  0  0
  9 16  1  0  0  0  0
  9  5  1  0  0  0  0
 10 11  1  0  0  0  0
 10  9  1  0  0  0  0
 11 12  1  0  0  0  0
 12 13  2  0  0  0  0
 12 15  1  0  0  0  0
 14 12  2  0  0  0  0
 16 15  1  0  0  0  0
 17 22  1  0  0  0  0
 18 17  2  0  0  0  0
 18 19  1  0  0  0  0
 19 20  2  0  0  0  0
 20 21  1  0  0  0  0
 20 23  1  0  0  0  0
 22 21  2  0  0  0  0
 23 24  1  0  0  0  0
 24 25  2  0  0  0  0
 24 29  1  0  0  0  0
 25 26  1  0  0  0  0
 26 27  2  0  0  0  0
 28 27  1  0  0  0  0
 29 28  2  0  0  0  0
 31 30  1  0  0  0  0
 32 31  2  0  0  0  0
M  END
>  <minimizedAffinity>
-6.40495825

$$$$
