
 OpenBabel09122222393D

 32 35  0  0  0  0  0  0  0  0999 V2000
    2.3190   -7.5660    6.3950 C   0  0  0  0  0  0  0  0  0  0  0  0
    3.1760   -8.5500    5.9580 C   0  0  0  0  0  3  0  0  0  0  0  0
    3.8670   -8.2630    4.7890 N   0  0  0  0  0  0  0  0  0  0  0  0
    3.5750   -7.0430    4.3960 C   0  0  0  0  0  0  0  0  0  0  0  0
    4.1280   -6.4410    3.2620 N   0  0  0  0  0  0  0  0  0  0  0  0
    4.1870   -5.0380    3.1200 C   0  0  0  0  0  0  0  0  0  0  0  0
    4.2340   -4.4690    2.0270 O   0  0  0  0  0  0  0  0  0  0  0  0
    2.3060   -6.2850    5.2720 S   0  0  0  0  0  0  0  0  0  0  0  0
    4.6740   -7.2440    2.1470 C   0  0  0  0  0  3  0  0  0  0  0  0
    6.2150   -7.2370    2.0630 C   0  0  0  0  0  2  0  0  0  0  0  0
    6.8510   -6.1990    1.1530 C   0  0  0  0  0  2  0  0  0  0  0  0
    6.1650   -6.2600   -0.4820 S   0  0  0  0  0  0  0  0  0  0  0  0
    6.6480   -5.1190   -1.2350 O   0  0  0  0  0  0  0  0  0  0  0  0
    6.3540   -7.6050   -0.9970 O   0  0  0  0  0  0  0  0  0  0  0  0
    4.4340   -6.0400   -0.1690 C   0  0  0  0  0  2  0  0  0  0  0  0
    3.9030   -7.0650    0.8200 C   0  0  0  0  0  2  0  0  0  0  0  0
    4.3480   -4.1670    4.3150 C   0  0  0  0  0  0  0  0  0  0  0  0
    3.4010   -3.1600    4.5460 C   0  0  0  0  0  3  0  0  0  0  0  0
    3.4740   -2.3960    5.7100 C   0  0  0  0  0  3  0  0  0  0  0  0
    4.4920   -2.6430    6.6320 C   0  0  0  0  0  0  0  0  0  0  0  0
    5.4930   -3.5800    6.3610 C   0  0  0  0  0  3  0  0  0  0  0  0
    5.4230   -4.3450    5.1970 C   0  0  0  0  0  3  0  0  0  0  0  0
    4.4900   -1.9210    7.8010 O   0  0  0  0  0  0  0  0  0  0  0  0
    5.7250   -1.5790    8.3180 C   0  0  0  0  0  0  0  0  0  0  0  0
    6.3150   -2.2110    9.4180 C   0  0  0  0  0  3  0  0  0  0  0  0
    7.5670   -1.7940    9.8740 C   0  0  0  0  0  3  0  0  0  0  0  0
    8.2210   -0.7350    9.2470 C   0  0  0  0  0  3  0  0  0  0  0  0
    7.6230   -0.0850    8.1670 C   0  0  0  0  0  3  0  0  0  0  0  0
    6.3730   -0.5040    7.7050 C   0  0  0  0  0  3  0  0  0  0  0  0
    1.5270   -8.7590    8.2340 O   0  0  0  0  0  1  0  0  0  0  0  0
    1.5410   -7.6360    7.6430 C   0  0  0  0  0  0  0  0  0  0  0  0
    0.9670   -6.5730    8.0300 O   0  0  0  0  0  0  0  0  0  0  0  0
  1 31  1  0  0  0  0
  2  1  2  0  0  0  0
  3  2  1  0  0  0  0
  4  3  2  0  0  0  0
  4  8  1  0  0  0  0
  5  4  1  0  0  0  0
  6  5  1  0  0  0  0
  6 17  1  0  0  0  0
  7  6  2  0  0  0  0
  8  1  1  0  0  0  0
  9  5  1  0  0  0  0
 10  9  1  0  0  0  0
 11 10  1  0  0  0  0
 12 15  1  0  0  0  0
 12 11  1  0  0  0  0
 13 12  2  0  0  0  0
 14 12  2  0  0  0  0
 15 16  1  0  0  0  0
 16  9  1  0  0  0  0
 17 18  2  0  0  0  0
 17 22  1  0  0  0  0
 18 19  1  0  0  0  0
 19 20  2  0  0  0  0
 20 23  1  0  0  0  0
 21 20  1  0  0  0  0
 22 21  2  0  0  0  0
 23 24  1  0  0  0  0
 24 25  1  0  0  0  0
 25 26  2  0  0  0  0
 27 26  1  0  0  0  0
 28 27  2  0  0  0  0
 29 28  1  0  0  0  0
 29 24  2  0  0  0  0
 31 32  2  0  0  0  0
 31 30  1  0  0  0  0
M  END
>  <minimizedAffinity>
-6.41595745

$$$$
