
 OpenBabel09092210413D

 19 20  0  0  0  0  0  0  0  0999 V2000
    2.5140    4.3230   -0.5770 N   0  0  0  0  0  0  0  0  0  0  0  0
    3.4150    4.1450   -1.5990 C   0  0  0  0  0  0  0  0  0  0  0  0
    4.7370    4.1060   -1.4060 N   0  0  0  0  0  0  0  0  0  0  0  0
    2.8100    4.1070   -2.7570 N   0  0  0  0  0  0  0  0  0  0  0  0
    1.4680    4.1040   -2.4790 C   0  0  0  0  0  0  0  0  0  0  0  0
    0.3750    4.0270   -3.3540 C   0  0  0  0  0  3  0  0  0  0  0  0
   -0.9180    4.0510   -2.8200 C   0  0  0  0  0  3  0  0  0  0  0  0
   -1.1200    4.1450   -1.4430 C   0  0  0  0  0  3  0  0  0  0  0  0
   -0.0430    4.2310   -0.5530 C   0  0  0  0  0  3  0  0  0  0  0  0
    1.2450    4.2160   -1.1080 C   0  0  0  0  0  0  0  0  0  0  0  0
    5.3200    3.9440   -2.2260 H   0  0  0  0  0  0  0  0  0  0  0  0
    5.1860    3.8720   -0.5280 H   0  0  0  0  0  0  0  0  0  0  0  0
    2.8240    4.7670    0.7640 C   0  0  0  0  0  2  0  0  0  0  0  0
    3.2120    3.6440    1.7390 C   0  0  0  0  0  2  0  0  0  0  0  0
    2.1420    2.6030    2.0890 C   0  0  0  0  0  2  0  0  0  0  0  0
    3.0310    0.2610    1.7700 C   0  0  0  0  0  1  0  0  0  0  0  0
    2.1810    1.3680    1.2200 N   0  0  0  0  0  4  0  0  0  0  0  0
    0.7810    0.8820    0.9190 C   0  0  0  0  0  1  0  0  0  0  0  0
    2.5530    1.6250    0.2980 H   0  0  0  0  0  0  0  0  0  0  0  0
  1 13  1  0  0  0  0
  2  3  1  0  0  0  0
  2  1  1  0  0  0  0
  3 12  1  0  0  0  0
  4  5  1  0  0  0  0
  4  2  2  0  0  0  0
  5 10  1  0  0  0  0
  6  7  1  0  0  0  0
  6  5  2  0  0  0  0
  7  8  2  0  0  0  0
  8  9  1  0  0  0  0
 10  1  1  0  0  0  0
 10  9  2  0  0  0  0
 11  3  1  0  0  0  0
 13 14  1  0  0  0  0
 14 15  1  0  0  0  0
 17 16  1  0  0  0  0
 17 15  1  0  0  0  0
 18 17  1  0  0  0  0
 19 17  1  0  0  0  0
M  END
>  <minimizedAffinity>
-2.16917276

$$$$
