
 OpenBabel09092210413D

 19 20  0  0  0  0  0  0  0  0999 V2000
    1.5930    3.9040    0.4810 N   0  0  0  0  0  0  0  0  0  0  0  0
    0.2550    4.0130    0.1880 C   0  0  0  0  0  0  0  0  0  0  0  0
   -0.7020    3.9470    1.1180 N   0  0  0  0  0  0  0  0  0  0  0  0
    0.0640    4.1020   -1.1020 N   0  0  0  0  0  0  0  0  0  0  0  0
    1.3110    4.2100   -1.6590 C   0  0  0  0  0  0  0  0  0  0  0  0
    1.6770    4.3760   -3.0030 C   0  0  0  0  0  3  0  0  0  0  0  0
    3.0360    4.4530   -3.3260 C   0  0  0  0  0  3  0  0  0  0  0  0
    4.0120    4.3710   -2.3330 C   0  0  0  0  0  3  0  0  0  0  0  0
    3.6680    4.1980   -0.9870 C   0  0  0  0  0  3  0  0  0  0  0  0
    2.3010    4.1130   -0.6850 C   0  0  0  0  0  0  0  0  0  0  0  0
   -1.6640    4.0650    0.8020 H   0  0  0  0  0  0  0  0  0  0  0  0
   -0.5660    4.1410    2.1030 H   0  0  0  0  0  0  0  0  0  0  0  0
    2.1560    3.4330    1.7280 C   0  0  0  0  0  2  0  0  0  0  0  0
    2.6040    1.9630    1.7160 C   0  0  0  0  0  2  0  0  0  0  0  0
    1.5200    0.8860    1.8430 C   0  0  0  0  0  2  0  0  0  0  0  0
    1.5020   -1.3280    0.6290 C   0  0  0  0  0  1  0  0  0  0  0  0
    1.2360    0.1460    0.5560 N   0  0  0  0  0  4  0  0  0  0  0  0
   -0.1720    0.4250    0.0810 C   0  0  0  0  0  1  0  0  0  0  0  0
    1.8270    0.5380   -0.1860 H   0  0  0  0  0  0  0  0  0  0  0  0
  1 13  1  0  0  0  0
  2  1  1  0  0  0  0
  2  3  1  0  0  0  0
  3 12  1  0  0  0  0
  4  2  2  0  0  0  0
  5  4  1  0  0  0  0
  5 10  1  0  0  0  0
  6  5  2  0  0  0  0
  7  6  1  0  0  0  0
  7  8  2  0  0  0  0
  8  9  1  0  0  0  0
  9 10  2  0  0  0  0
 10  1  1  0  0  0  0
 11  3  1  0  0  0  0
 14 13  1  0  0  0  0
 14 15  1  0  0  0  0
 17 16  1  0  0  0  0
 17 15  1  0  0  0  0
 18 17  1  0  0  0  0
 19 17  1  0  0  0  0
M  END
>  <minimizedAffinity>
-2.0957303

$$$$
