
 OpenBabel09092210413D

 19 20  0  0  0  0  0  0  0  0999 V2000
    1.3530    3.4670    0.3380 N   0  0  0  0  0  0  0  0  0  0  0  0
    2.4150    2.8040    0.9050 C   0  0  0  0  0  0  0  0  0  0  0  0
    2.2850    1.9830    1.9520 N   0  0  0  0  0  0  0  0  0  0  0  0
    3.5400    3.1530    0.3410 N   0  0  0  0  0  0  0  0  0  0  0  0
    3.1970    3.9440   -0.7230 C   0  0  0  0  0  0  0  0  0  0  0  0
    4.0160    4.5470   -1.6890 C   0  0  0  0  0  3  0  0  0  0  0  0
    3.4210    5.3270   -2.6860 C   0  0  0  0  0  3  0  0  0  0  0  0
    2.0370    5.5010   -2.7250 C   0  0  0  0  0  3  0  0  0  0  0  0
    1.2020    4.9140   -1.7660 C   0  0  0  0  0  3  0  0  0  0  0  0
    1.8190    4.1450   -0.7690 C   0  0  0  0  0  0  0  0  0  0  0  0
    3.1300    1.5190    2.2840 H   0  0  0  0  0  0  0  0  0  0  0  0
    1.4270    1.5140    2.2170 H   0  0  0  0  0  0  0  0  0  0  0  0
    0.0350    3.6180    0.9170 C   0  0  0  0  0  2  0  0  0  0  0  0
   -1.0570    2.7600    0.2600 C   0  0  0  0  0  2  0  0  0  0  0  0
   -0.8040    1.2520    0.1420 C   0  0  0  0  0  2  0  0  0  0  0  0
   -0.5330   -0.6080   -1.5450 C   0  0  0  0  0  1  0  0  0  0  0  0
   -0.2560    0.8260   -1.2010 N   0  0  0  0  0  4  0  0  0  0  0  0
   -0.7390    1.7520   -2.2930 C   0  0  0  0  0  1  0  0  0  0  0  0
    0.7620    0.9600   -1.1990 H   0  0  0  0  0  0  0  0  0  0  0  0
  1  2  1  0  0  0  0
  1 13  1  0  0  0  0
  2  3  1  0  0  0  0
  3 12  1  0  0  0  0
  3 11  1  0  0  0  0
  4  2  2  0  0  0  0
  5  4  1  0  0  0  0
  6  5  2  0  0  0  0
  7  6  1  0  0  0  0
  8  7  2  0  0  0  0
  8  9  1  0  0  0  0
  9 10  2  0  0  0  0
 10  5  1  0  0  0  0
 10  1  1  0  0  0  0
 14 13  1  0  0  0  0
 15 14  1  0  0  0  0
 16 17  1  0  0  0  0
 17 19  1  0  0  0  0
 17 15  1  0  0  0  0
 18 17  1  0  0  0  0
M  END
>  <minimizedAffinity>
-2.28654218

$$$$
