
 OpenBabel09092210413D

 19 20  0  0  0  0  0  0  0  0999 V2000
    2.1500    4.8180   -0.5740 N   0  0  0  0  0  0  0  0  0  0  0  0
    3.1860    4.0370   -1.0270 C   0  0  0  0  0  0  0  0  0  0  0  0
    3.5840    4.0250   -2.3030 N   0  0  0  0  0  0  0  0  0  0  0  0
    3.6480    3.2720   -0.0740 N   0  0  0  0  0  0  0  0  0  0  0  0
    3.0070    3.6700    1.0700 C   0  0  0  0  0  0  0  0  0  0  0  0
    3.1620    3.2100    2.3860 C   0  0  0  0  0  3  0  0  0  0  0  0
    2.3750    3.7770    3.3940 C   0  0  0  0  0  3  0  0  0  0  0  0
    1.4540    4.7830    3.1000 C   0  0  0  0  0  3  0  0  0  0  0  0
    1.2780    5.2500    1.7920 C   0  0  0  0  0  3  0  0  0  0  0  0
    2.0690    4.6620    0.7950 C   0  0  0  0  0  0  0  0  0  0  0  0
    4.3790    3.4290   -2.5340 H   0  0  0  0  0  0  0  0  0  0  0  0
    3.4240    4.7740   -2.9660 H   0  0  0  0  0  0  0  0  0  0  0  0
    1.1750    5.5020   -1.3960 C   0  0  0  0  0  2  0  0  0  0  0  0
   -0.1090    4.7030   -1.6690 C   0  0  0  0  0  2  0  0  0  0  0  0
   -0.0320    3.5560   -2.6840 C   0  0  0  0  0  2  0  0  0  0  0  0
   -0.3130    2.1550   -0.6010 C   0  0  0  0  0  1  0  0  0  0  0  0
    0.0590    2.1850   -2.0540 N   0  0  0  0  0  4  0  0  0  0  0  0
   -0.7460    1.1800   -2.8460 C   0  0  0  0  0  1  0  0  0  0  0  0
    1.0250    1.8470   -2.1400 H   0  0  0  0  0  0  0  0  0  0  0  0
  1 10  1  0  0  0  0
  2  1  1  0  0  0  0
  2  4  2  0  0  0  0
  3  2  1  0  0  0  0
  4  5  1  0  0  0  0
  5  6  1  0  0  0  0
  6  7  2  0  0  0  0
  8  7  1  0  0  0  0
  9  8  2  0  0  0  0
 10  5  2  0  0  0  0
 10  9  1  0  0  0  0
 11  3  1  0  0  0  0
 12  3  1  0  0  0  0
 13  1  1  0  0  0  0
 14 13  1  0  0  0  0
 15 17  1  0  0  0  0
 15 14  1  0  0  0  0
 17 16  1  0  0  0  0
 18 17  1  0  0  0  0
 19 17  1  0  0  0  0
M  END
>  <minimizedAffinity>
-2.20814753

$$$$
