
 OpenBabel09082221313D

 19 20  0  0  0  0  0  0  0  0999 V2000
    2.1500    4.8180   -0.5740 N   0  0  0  0  0  0  0  0  0  0  0  0
    3.1860    4.0370   -1.0270 C   0  0  0  0  0  0  0  0  0  0  0  0
    3.5840    4.0250   -2.3030 N   0  0  0  0  0  0  0  0  0  0  0  0
    3.6480    3.2720   -0.0740 N   0  0  0  0  0  0  0  0  0  0  0  0
    3.0070    3.6700    1.0700 C   0  0  0  0  0  0  0  0  0  0  0  0
    3.1620    3.2100    2.3860 C   0  0  0  0  0  3  0  0  0  0  0  0
    2.3750    3.7770    3.3940 C   0  0  0  0  0  3  0  0  0  0  0  0
    1.4540    4.7830    3.1000 C   0  0  0  0  0  3  0  0  0  0  0  0
    1.2780    5.2500    1.7920 C   0  0  0  0  0  3  0  0  0  0  0  0
    2.0690    4.6620    0.7950 C   0  0  0  0  0  0  0  0  0  0  0  0
    4.3790    3.4290   -2.5340 H   0  0  0  0  0  0  0  0  0  0  0  0
    3.4240    4.7740   -2.9660 H   0  0  0  0  0  0  0  0  0  0  0  0
    1.1750    5.5020   -1.3960 C   0  0  0  0  0  2  0  0  0  0  0  0
   -0.1090    4.7030   -1.6690 C   0  0  0  0  0  2  0  0  0  0  0  0
   -0.0320    3.5560   -2.6840 C   0  0  0  0  0  2  0  0  0  0  0  0
   -0.3130    2.1550   -0.6010 C   0  0  0  0  0  1  0  0  0  0  0  0
    0.0590    2.1850   -2.0540 N   0  0  0  0  0  4  0  0  0  0  0  0
   -0.7460    1.1800   -2.8460 C   0  0  0  0  0  1  0  0  0  0  0  0
    1.0250    1.8470   -2.1400 H   0  0  0  0  0  0  0  0  0  0  0  0
  1 10  1  0  0  0  0
  2  1  1  0  0  0  0
  2  4  2  0  0  0  0
  3  2  1  0  0  0  0
  4  5  1  0  0  0  0
  5  6  1  0  0  0  0
  6  7  2  0  0  0  0
  8  7  1  0  0  0  0
  9  8  2  0  0  0  0
 10  5  2  0  0  0  0
 10  9  1  0  0  0  0
 11  3  1  0  0  0  0
 12  3  1  0  0  0  0
 13  1  1  0  0  0  0
 14 13  1  0  0  0  0
 15 17  1  0  0  0  0
 15 14  1  0  0  0  0
 17 16  1  0  0  0  0
 18 17  1  0  0  0  0
 19 17  1  0  0  0  0
M  END
>  <minimizedAffinity>
-2.20814753

$$$$

 OpenBabel09082221313D

 19 20  0  0  0  0  0  0  0  0999 V2000
    1.4800    3.8620    0.3380 N   0  0  0  0  0  0  0  0  0  0  0  0
    2.4950    3.1010    0.8660 C   0  0  0  0  0  0  0  0  0  0  0  0
    2.3660    2.4010    1.9980 N   0  0  0  0  0  0  0  0  0  0  0  0
    3.5900    3.2290    0.1660 N   0  0  0  0  0  0  0  0  0  0  0  0
    3.2470    3.9680   -0.9360 C   0  0  0  0  0  0  0  0  0  0  0  0
    4.0330    4.3570   -2.0300 C   0  0  0  0  0  3  0  0  0  0  0  0
    3.4470    5.1280   -3.0400 C   0  0  0  0  0  3  0  0  0  0  0  0
    2.1050    5.5000   -2.9660 C   0  0  0  0  0  3  0  0  0  0  0  0
    1.3050    5.1290   -1.8780 C   0  0  0  0  0  3  0  0  0  0  0  0
    1.9140    4.3650   -0.8720 C   0  0  0  0  0  0  0  0  0  0  0  0
    3.1700    1.8470    2.2930 H   0  0  0  0  0  0  0  0  0  0  0  0
    1.4850    2.0890    2.3880 H   0  0  0  0  0  0  0  0  0  0  0  0
    0.2660    4.2550    1.0200 C   0  0  0  0  0  2  0  0  0  0  0  0
   -0.8920    3.2520    0.9010 C   0  0  0  0  0  2  0  0  0  0  0  0
   -1.5810    3.1180   -0.4620 C   0  0  0  0  0  2  0  0  0  0  0  0
   -0.5970    1.9920   -2.4970 C   0  0  0  0  0  1  0  0  0  0  0  0
   -1.2850    1.8190   -1.1750 N   0  0  0  0  0  4  0  0  0  0  0  0
   -0.5130    0.8820   -0.2750 C   0  0  0  0  0  1  0  0  0  0  0  0
   -2.1700    1.3250   -1.3400 H   0  0  0  0  0  0  0  0  0  0  0  0
  1  2  1  0  0  0  0
  1 13  1  0  0  0  0
  2  3  1  0  0  0  0
  3 11  1  0  0  0  0
  3 12  1  0  0  0  0
  4  2  2  0  0  0  0
  5 10  1  0  0  0  0
  5  4  1  0  0  0  0
  6  5  2  0  0  0  0
  7  8  2  0  0  0  0
  7  6  1  0  0  0  0
  8  9  1  0  0  0  0
  9 10  2  0  0  0  0
 10  1  1  0  0  0  0
 14 13  1  0  0  0  0
 15 14  1  0  0  0  0
 16 17  1  0  0  0  0
 17 15  1  0  0  0  0
 17 18  1  0  0  0  0
 19 17  1  0  0  0  0
M  END
>  <minimizedAffinity>
-2.14677763

$$$$

 OpenBabel09082221313D

 19 20  0  0  0  0  0  0  0  0999 V2000
    1.5070    3.7970    0.4050 N   0  0  0  0  0  0  0  0  0  0  0  0
    0.1890    3.8900    0.0250 C   0  0  0  0  0  0  0  0  0  0  0  0
   -0.8270    3.7710    0.8860 N   0  0  0  0  0  0  0  0  0  0  0  0
    0.0830    4.0220   -1.2710 N   0  0  0  0  0  0  0  0  0  0  0  0
    1.3610    4.1750   -1.7380 C   0  0  0  0  0  0  0  0  0  0  0  0
    1.8130    4.3970   -3.0470 C   0  0  0  0  0  3  0  0  0  0  0  0
    3.1880    4.5120   -3.2750 C   0  0  0  0  0  3  0  0  0  0  0  0
    4.0970    4.4140   -2.2210 C   0  0  0  0  0  3  0  0  0  0  0  0
    3.6680    4.1850   -0.9080 C   0  0  0  0  0  3  0  0  0  0  0  0
    2.2860    4.0620   -0.7030 C   0  0  0  0  0  0  0  0  0  0  0  0
   -1.7680    3.8810    0.5090 H   0  0  0  0  0  0  0  0  0  0  0  0
   -0.7610    3.9320    1.8840 H   0  0  0  0  0  0  0  0  0  0  0  0
    1.9950    3.2910    1.6700 C   0  0  0  0  0  2  0  0  0  0  0  0
    2.4870    1.8360    1.6330 C   0  0  0  0  0  2  0  0  0  0  0  0
    1.4370    0.7250    1.7510 C   0  0  0  0  0  2  0  0  0  0  0  0
    1.4650   -1.4690    0.5000 C   0  0  0  0  0  1  0  0  0  0  0  0
    1.1630    0.0000    0.4530 N   0  0  0  0  0  4  0  0  0  0  0  0
   -0.2530    0.2530   -0.0100 C   0  0  0  0  0  1  0  0  0  0  0  0
    1.7400    0.4190   -0.2860 H   0  0  0  0  0  0  0  0  0  0  0  0
  1 13  1  0  0  0  0
  2  1  1  0  0  0  0
  2  3  1  0  0  0  0
  3 12  1  0  0  0  0
  4  2  2  0  0  0  0
  5  4  1  0  0  0  0
  5 10  1  0  0  0  0
  6  5  2  0  0  0  0
  7  6  1  0  0  0  0
  7  8  2  0  0  0  0
  8  9  1  0  0  0  0
  9 10  2  0  0  0  0
 10  1  1  0  0  0  0
 11  3  1  0  0  0  0
 14 13  1  0  0  0  0
 14 15  1  0  0  0  0
 17 16  1  0  0  0  0
 17 15  1  0  0  0  0
 18 17  1  0  0  0  0
 19 17  1  0  0  0  0
M  END
>  <minimizedAffinity>
-2.09760189

$$$$

 OpenBabel09082221313D

 19 20  0  0  0  0  0  0  0  0999 V2000
    2.1050    4.5590    0.6140 N   0  0  0  0  0  0  0  0  0  0  0  0
    3.4020    4.9340    0.8660 C   0  0  0  0  0  0  0  0  0  0  0  0
    3.9520    4.8800    2.0840 N   0  0  0  0  0  0  0  0  0  0  0  0
    3.9690    5.4140   -0.2090 N   0  0  0  0  0  0  0  0  0  0  0  0
    3.0770    5.2070   -1.2270 C   0  0  0  0  0  0  0  0  0  0  0  0
    3.2020    5.4920   -2.5950 C   0  0  0  0  0  3  0  0  0  0  0  0
    2.1330    5.1910   -3.4460 C   0  0  0  0  0  3  0  0  0  0  0  0
    0.9650    4.6130   -2.9480 C   0  0  0  0  0  3  0  0  0  0  0  0
    0.8170    4.3280   -1.5850 C   0  0  0  0  0  3  0  0  0  0  0  0
    1.8960    4.6460   -0.7470 C   0  0  0  0  0  0  0  0  0  0  0  0
    4.9300    5.1560    2.1630 H   0  0  0  0  0  0  0  0  0  0  0  0
    3.6300    4.2860    2.8380 H   0  0  0  0  0  0  0  0  0  0  0  0
    1.0750    4.3340    1.6050 C   0  0  0  0  0  2  0  0  0  0  0  0
    0.9840    2.8890    2.1200 C   0  0  0  0  0  2  0  0  0  0  0  0
    0.5530    1.8040    1.1270 C   0  0  0  0  0  2  0  0  0  0  0  0
    2.8610    0.9360    1.6760 C   0  0  0  0  0  1  0  0  0  0  0  0
    1.6120    0.7580    0.8630 N   0  0  0  0  0  4  0  0  0  0  0  0
    1.0420   -0.6310    1.0340 C   0  0  0  0  0  1  0  0  0  0  0  0
    1.8720    0.7950   -0.1290 H   0  0  0  0  0  0  0  0  0  0  0  0
  1  2  1  0  0  0  0
  1 13  1  0  0  0  0
  2  3  1  0  0  0  0
  3 11  1  0  0  0  0
  3 12  1  0  0  0  0
  4  2  2  0  0  0  0
  5 10  1  0  0  0  0
  5  4  1  0  0  0  0
  6  5  2  0  0  0  0
  7  8  2  0  0  0  0
  7  6  1  0  0  0  0
  8  9  1  0  0  0  0
  9 10  2  0  0  0  0
 10  1  1  0  0  0  0
 13 14  1  0  0  0  0
 15 14  1  0  0  0  0
 17 18  1  0  0  0  0
 17 15  1  0  0  0  0
 17 16  1  0  0  0  0
 19 17  1  0  0  0  0
M  END
>  <minimizedAffinity>
-2.08947873

$$$$

 OpenBabel09082221313D

 19 20  0  0  0  0  0  0  0  0999 V2000
    1.4210    3.5280    0.5370 N   0  0  0  0  0  0  0  0  0  0  0  0
    2.4140    2.7290    1.0500 C   0  0  0  0  0  0  0  0  0  0  0  0
    2.2280    1.9170    2.0960 N   0  0  0  0  0  0  0  0  0  0  0  0
    3.5480    2.9390    0.4370 N   0  0  0  0  0  0  0  0  0  0  0  0
    3.2610    3.7810   -0.6050 C   0  0  0  0  0  0  0  0  0  0  0  0
    4.1060    4.2870   -1.6030 C   0  0  0  0  0  3  0  0  0  0  0  0
    3.5700    5.1490   -2.5660 C   0  0  0  0  0  3  0  0  0  0  0  0
    2.2190    5.4960   -2.5400 C   0  0  0  0  0  3  0  0  0  0  0  0
    1.3610    5.0080   -1.5480 C   0  0  0  0  0  3  0  0  0  0  0  0
    1.9190    4.1550   -0.5860 C   0  0  0  0  0  0  0  0  0  0  0  0
    3.0220    1.3460    2.3860 H   0  0  0  0  0  0  0  0  0  0  0  0
    1.3310    1.5580    2.3970 H   0  0  0  0  0  0  0  0  0  0  0  0
    0.1600    3.8360    1.1770 C   0  0  0  0  0  2  0  0  0  0  0  0
    0.1170    5.1980    1.8890 C   0  0  0  0  0  2  0  0  0  0  0  0
    0.1350    5.2010    3.4220 C   0  0  0  0  0  2  0  0  0  0  0  0
    2.6380    5.4930    3.5780 C   0  0  0  0  0  1  0  0  0  0  0  0
    1.4340    4.7160    4.0220 N   0  0  0  0  0  4  0  0  0  0  0  0
    1.3400    4.6680    5.5300 C   0  0  0  0  0  1  0  0  0  0  0  0
    1.5740    3.7350    3.7550 H   0  0  0  0  0  0  0  0  0  0  0  0
  1  2  1  0  0  0  0
  1 13  1  0  0  0  0
  2  3  1  0  0  0  0
  3 11  1  0  0  0  0
  3 12  1  0  0  0  0
  4  2  2  0  0  0  0
  5 10  1  0  0  0  0
  5  4  1  0  0  0  0
  6  5  2  0  0  0  0
  7  8  2  0  0  0  0
  7  6  1  0  0  0  0
  8  9  1  0  0  0  0
  9 10  2  0  0  0  0
 10  1  1  0  0  0  0
 13 14  1  0  0  0  0
 14 15  1  0  0  0  0
 15 17  1  0  0  0  0
 16 17  1  0  0  0  0
 17 18  1  0  0  0  0
 19 17  1  0  0  0  0
M  END
>  <minimizedAffinity>
-2.06404471

$$$$

 OpenBabel09082221313D

 19 20  0  0  0  0  0  0  0  0999 V2000
    1.2090    4.3520    0.2200 N   0  0  0  0  0  0  0  0  0  0  0  0
    2.1660    4.2690    1.2030 C   0  0  0  0  0  0  0  0  0  0  0  0
    1.8700    4.2300    2.5060 N   0  0  0  0  0  0  0  0  0  0  0  0
    3.3680    4.3190    0.6930 N   0  0  0  0  0  0  0  0  0  0  0  0
    3.2000    4.2780   -0.6660 C   0  0  0  0  0  0  0  0  0  0  0  0
    4.1640    4.2600   -1.6840 C   0  0  0  0  0  3  0  0  0  0  0  0
    3.7370    4.2250   -3.0160 C   0  0  0  0  0  3  0  0  0  0  0  0
    2.3770    4.2030   -3.3290 C   0  0  0  0  0  3  0  0  0  0  0  0
    1.3990    4.2280   -2.3280 C   0  0  0  0  0  3  0  0  0  0  0  0
    1.8480    4.2740   -1.0000 C   0  0  0  0  0  0  0  0  0  0  0  0
    2.6500    4.1420    3.1560 H   0  0  0  0  0  0  0  0  0  0  0  0
    0.9810    3.9310    2.8880 H   0  0  0  0  0  0  0  0  0  0  0  0
   -0.1850    4.6880    0.4150 C   0  0  0  0  0  2  0  0  0  0  0  0
   -1.0950    3.4920    0.7370 C   0  0  0  0  0  2  0  0  0  0  0  0
   -0.6980    2.1230    0.1740 C   0  0  0  0  0  2  0  0  0  0  0  0
    1.1570    0.7390    1.1830 C   0  0  0  0  0  1  0  0  0  0  0  0
   -0.2930    1.1200    1.2290 N   0  0  0  0  0  4  0  0  0  0  0  0
   -0.6880    1.6040    2.6050 C   0  0  0  0  0  1  0  0  0  0  0  0
   -0.8490    0.2660    1.1020 H   0  0  0  0  0  0  0  0  0  0  0  0
  1 13  1  0  0  0  0
  1  2  1  0  0  0  0
  2  3  1  0  0  0  0
  3 12  1  0  0  0  0
  3 11  1  0  0  0  0
  4  2  2  0  0  0  0
  5  4  1  0  0  0  0
  6  5  2  0  0  0  0
  7  6  1  0  0  0  0
  8  7  2  0  0  0  0
  8  9  1  0  0  0  0
  9 10  2  0  0  0  0
 10  5  1  0  0  0  0
 10  1  1  0  0  0  0
 13 14  1  0  0  0  0
 15 14  1  0  0  0  0
 15 17  1  0  0  0  0
 16 17  1  0  0  0  0
 17 18  1  0  0  0  0
 19 17  1  0  0  0  0
M  END
>  <minimizedAffinity>
-1.95395315

$$$$

 OpenBabel09082221313D

 19 20  0  0  0  0  0  0  0  0999 V2000
    1.5250    4.2110    0.4830 N   0  0  0  0  0  0  0  0  0  0  0  0
    0.2050    4.2850    0.1090 C   0  0  0  0  0  0  0  0  0  0  0  0
   -0.7980    4.3570    0.9890 N   0  0  0  0  0  0  0  0  0  0  0  0
    0.0790    4.1910   -1.1880 N   0  0  0  0  0  0  0  0  0  0  0  0
    1.3530    4.2120   -1.6910 C   0  0  0  0  0  0  0  0  0  0  0  0
    1.7880    4.1840   -3.0240 C   0  0  0  0  0  3  0  0  0  0  0  0
    3.1620    4.2060   -3.2860 C   0  0  0  0  0  3  0  0  0  0  0  0
    4.0860    4.2610   -2.2420 C   0  0  0  0  0  3  0  0  0  0  0  0
    3.6740    4.2820   -0.9040 C   0  0  0  0  0  3  0  0  0  0  0  0
    2.2930    4.2480   -0.6630 C   0  0  0  0  0  0  0  0  0  0  0  0
   -1.7420    4.4340    0.6110 H   0  0  0  0  0  0  0  0  0  0  0  0
   -0.7080    4.6880    1.9420 H   0  0  0  0  0  0  0  0  0  0  0  0
    2.0190    3.9180    1.8110 C   0  0  0  0  0  2  0  0  0  0  0  0
    2.5260    5.1410    2.5920 C   0  0  0  0  0  2  0  0  0  0  0  0
    4.0420    5.3130    2.7420 C   0  0  0  0  0  2  0  0  0  0  0  0
    3.5390    5.1620    5.2120 C   0  0  0  0  0  1  0  0  0  0  0  0
    4.5610    4.9980    4.1260 N   0  0  0  0  0  4  0  0  0  0  0  0
    5.1820    3.6200    4.1620 C   0  0  0  0  0  1  0  0  0  0  0  0
    5.3470    5.6250    4.3330 H   0  0  0  0  0  0  0  0  0  0  0  0
  1 13  1  0  0  0  0
  2  1  1  0  0  0  0
  2  3  1  0  0  0  0
  3 12  1  0  0  0  0
  4  2  2  0  0  0  0
  5  4  1  0  0  0  0
  5 10  1  0  0  0  0
  6  5  2  0  0  0  0
  7  6  1  0  0  0  0
  7  8  2  0  0  0  0
  8  9  1  0  0  0  0
  9 10  2  0  0  0  0
 10  1  1  0  0  0  0
 11  3  1  0  0  0  0
 13 14  1  0  0  0  0
 14 15  1  0  0  0  0
 15 17  1  0  0  0  0
 17 18  1  0  0  0  0
 17 19  1  0  0  0  0
 17 16  1  0  0  0  0
M  END
>  <minimizedAffinity>
-1.84930062

$$$$

 OpenBabel09082221313D

 19 20  0  0  0  0  0  0  0  0999 V2000
    2.6660    1.5580    2.4880 N   0  0  0  0  0  0  0  0  0  0  0  0
    3.7630    1.2840    3.2690 C   0  0  0  0  0  0  0  0  0  0  0  0
    4.3060    2.1790    4.1010 N   0  0  0  0  0  0  0  0  0  0  0  0
    4.2300    0.0900    3.0190 N   0  0  0  0  0  0  0  0  0  0  0  0
    3.3290   -0.4950    2.1690 C   0  0  0  0  0  0  0  0  0  0  0  0
    3.3240   -1.7870    1.6250 C   0  0  0  0  0  3  0  0  0  0  0  0
    2.2840   -2.1500    0.7620 C   0  0  0  0  0  3  0  0  0  0  0  0
    1.2660   -1.2480    0.4510 C   0  0  0  0  0  3  0  0  0  0  0  0
    1.2580    0.0500    0.9770 C   0  0  0  0  0  3  0  0  0  0  0  0
    2.3140    0.3970    1.8310 C   0  0  0  0  0  0  0  0  0  0  0  0
    5.1040    1.8700    4.6560 H   0  0  0  0  0  0  0  0  0  0  0  0
    3.8190    2.9780    4.4890 H   0  0  0  0  0  0  0  0  0  0  0  0
    2.1150    2.8700    2.2230 C   0  0  0  0  0  2  0  0  0  0  0  0
    2.7460    3.6020    1.0280 C   0  0  0  0  0  2  0  0  0  0  0  0
    1.8530    3.8870   -0.1850 C   0  0  0  0  0  2  0  0  0  0  0  0
    1.9020    4.5490   -2.6220 C   0  0  0  0  0  1  0  0  0  0  0  0
    2.5720    3.7950   -1.5110 N   0  0  0  0  0  4  0  0  0  0  0  0
    4.0180    4.2100   -1.3640 C   0  0  0  0  0  1  0  0  0  0  0  0
    2.6280    2.8080   -1.7880 H   0  0  0  0  0  0  0  0  0  0  0  0
  1  2  1  0  0  0  0
  2  3  1  0  0  0  0
  3 12  1  0  0  0  0
  3 11  1  0  0  0  0
  4  2  2  0  0  0  0
  5  4  1  0  0  0  0
  6  5  2  0  0  0  0
  7  6  1  0  0  0  0
  8  7  2  0  0  0  0
  8  9  1  0  0  0  0
  9 10  2  0  0  0  0
 10  5  1  0  0  0  0
 10  1  1  0  0  0  0
 13  1  1  0  0  0  0
 14 13  1  0  0  0  0
 15 14  1  0  0  0  0
 16 17  1  0  0  0  0
 17 18  1  0  0  0  0
 17 15  1  0  0  0  0
 19 17  1  0  0  0  0
M  END
>  <minimizedAffinity>
-1.83683968

$$$$

 OpenBabel09082221313D

 19 20  0  0  0  0  0  0  0  0999 V2000
    0.7510    4.0770   -0.1770 N   0  0  0  0  0  0  0  0  0  0  0  0
   -0.2860    4.3210   -1.0440 C   0  0  0  0  0  0  0  0  0  0  0  0
   -1.5620    4.3930   -0.6510 N   0  0  0  0  0  0  0  0  0  0  0  0
    0.1390    4.3850   -2.2780 N   0  0  0  0  0  0  0  0  0  0  0  0
    1.5070    4.3370   -2.2060 C   0  0  0  0  0  0  0  0  0  0  0  0
    2.4580    4.4140   -3.2330 C   0  0  0  0  0  3  0  0  0  0  0  0
    3.8150    4.3300   -2.9020 C   0  0  0  0  0  3  0  0  0  0  0  0
    4.2180    4.1780   -1.5750 C   0  0  0  0  0  3  0  0  0  0  0  0
    3.2840    4.0900   -0.5360 C   0  0  0  0  0  3  0  0  0  0  0  0
    1.9290    4.1660   -0.8900 C   0  0  0  0  0  0  0  0  0  0  0  0
   -2.2560    4.6040   -1.3680 H   0  0  0  0  0  0  0  0  0  0  0  0
   -1.8660    4.6060    0.2910 H   0  0  0  0  0  0  0  0  0  0  0  0
    0.6300    3.5910    1.1810 C   0  0  0  0  0  2  0  0  0  0  0  0
    0.5890    2.0610    1.3140 C   0  0  0  0  0  2  0  0  0  0  0  0
    1.3260    1.4290    2.5010 C   0  0  0  0  0  2  0  0  0  0  0  0
    3.6050    1.8580    3.5000 C   0  0  0  0  0  1  0  0  0  0  0  0
    2.8240    1.3530    2.3230 N   0  0  0  0  0  4  0  0  0  0  0  0
    3.2470   -0.0490    1.9490 C   0  0  0  0  0  1  0  0  0  0  0  0
    3.0870    1.9140    1.5050 H   0  0  0  0  0  0  0  0  0  0  0  0
  1 13  1  0  0  0  0
  2  3  1  0  0  0  0
  2  1  1  0  0  0  0
  3 12  1  0  0  0  0
  4  5  1  0  0  0  0
  4  2  2  0  0  0  0
  5 10  1  0  0  0  0
  6  7  1  0  0  0  0
  6  5  2  0  0  0  0
  7  8  2  0  0  0  0
  8  9  1  0  0  0  0
 10  9  2  0  0  0  0
 10  1  1  0  0  0  0
 11  3  1  0  0  0  0
 13 14  1  0  0  0  0
 14 15  1  0  0  0  0
 17 15  1  0  0  0  0
 17 16  1  0  0  0  0
 18 17  1  0  0  0  0
 19 17  1  0  0  0  0
M  END
>  <minimizedAffinity>
-1.82536793

$$$$

 OpenBabel09082221313D

 19 20  0  0  0  0  0  0  0  0999 V2000
    3.0970    3.2530    1.5080 N   0  0  0  0  0  0  0  0  0  0  0  0
    3.8310    3.8020    2.5330 C   0  0  0  0  0  0  0  0  0  0  0  0
    4.3380    5.0380    2.4840 N   0  0  0  0  0  0  0  0  0  0  0  0
    4.0230    2.9330    3.4890 N   0  0  0  0  0  0  0  0  0  0  0  0
    3.2690    1.8390    3.1590 C   0  0  0  0  0  0  0  0  0  0  0  0
    3.0780    0.6410    3.8630 C   0  0  0  0  0  3  0  0  0  0  0  0
    2.2560   -0.3440    3.3050 C   0  0  0  0  0  3  0  0  0  0  0  0
    1.6310   -0.1400    2.0750 C   0  0  0  0  0  3  0  0  0  0  0  0
    1.8140    1.0460    1.3530 C   0  0  0  0  0  3  0  0  0  0  0  0
    2.6510    2.0160    1.9240 C   0  0  0  0  0  0  0  0  0  0  0  0
    4.8470    5.3630    3.3060 H   0  0  0  0  0  0  0  0  0  0  0  0
    3.9870    5.7840    1.8960 H   0  0  0  0  0  0  0  0  0  0  0  0
    2.9980    3.7690    0.1600 C   0  0  0  0  0  2  0  0  0  0  0  0
    1.6970    4.5300   -0.1420 C   0  0  0  0  0  2  0  0  0  0  0  0
    1.1440    4.4570   -1.5700 C   0  0  0  0  0  2  0  0  0  0  0  0
   -0.4760    2.5690   -1.1330 C   0  0  0  0  0  1  0  0  0  0  0  0
    0.6590    3.0830   -1.9700 N   0  0  0  0  0  4  0  0  0  0  0  0
    0.3130    3.0470   -3.4410 C   0  0  0  0  0  1  0  0  0  0  0  0
    1.4390    2.4210   -1.8860 H   0  0  0  0  0  0  0  0  0  0  0  0
  1 10  1  0  0  0  0
  1  2  1  0  0  0  0
  2  4  2  0  0  0  0
  3  2  1  0  0  0  0
  3 11  1  0  0  0  0
  5  4  1  0  0  0  0
  5  6  1  0  0  0  0
  7  6  2  0  0  0  0
  8  7  1  0  0  0  0
  9 10  1  0  0  0  0
  9  8  2  0  0  0  0
 10  5  2  0  0  0  0
 12  3  1  0  0  0  0
 13  1  1  0  0  0  0
 14 13  1  0  0  0  0
 15 14  1  0  0  0  0
 17 19  1  0  0  0  0
 17 15  1  0  0  0  0
 17 16  1  0  0  0  0
 18 17  1  0  0  0  0
M  END
>  <minimizedAffinity>
-1.79906964

$$$$
