
 OpenBabel09092210413D

 19 20  0  0  0  0  0  0  0  0999 V2000
    1.4210    3.5280    0.5370 N   0  0  0  0  0  0  0  0  0  0  0  0
    2.4140    2.7290    1.0500 C   0  0  0  0  0  0  0  0  0  0  0  0
    2.2280    1.9170    2.0960 N   0  0  0  0  0  0  0  0  0  0  0  0
    3.5480    2.9390    0.4370 N   0  0  0  0  0  0  0  0  0  0  0  0
    3.2610    3.7810   -0.6050 C   0  0  0  0  0  0  0  0  0  0  0  0
    4.1060    4.2870   -1.6030 C   0  0  0  0  0  3  0  0  0  0  0  0
    3.5700    5.1490   -2.5660 C   0  0  0  0  0  3  0  0  0  0  0  0
    2.2190    5.4960   -2.5400 C   0  0  0  0  0  3  0  0  0  0  0  0
    1.3610    5.0080   -1.5480 C   0  0  0  0  0  3  0  0  0  0  0  0
    1.9190    4.1550   -0.5860 C   0  0  0  0  0  0  0  0  0  0  0  0
    3.0220    1.3460    2.3860 H   0  0  0  0  0  0  0  0  0  0  0  0
    1.3310    1.5580    2.3970 H   0  0  0  0  0  0  0  0  0  0  0  0
    0.1600    3.8360    1.1770 C   0  0  0  0  0  2  0  0  0  0  0  0
    0.1170    5.1980    1.8890 C   0  0  0  0  0  2  0  0  0  0  0  0
    0.1350    5.2010    3.4220 C   0  0  0  0  0  2  0  0  0  0  0  0
    2.6380    5.4930    3.5780 C   0  0  0  0  0  1  0  0  0  0  0  0
    1.4340    4.7160    4.0220 N   0  0  0  0  0  4  0  0  0  0  0  0
    1.3400    4.6680    5.5300 C   0  0  0  0  0  1  0  0  0  0  0  0
    1.5740    3.7350    3.7550 H   0  0  0  0  0  0  0  0  0  0  0  0
  1  2  1  0  0  0  0
  1 13  1  0  0  0  0
  2  3  1  0  0  0  0
  3 11  1  0  0  0  0
  3 12  1  0  0  0  0
  4  2  2  0  0  0  0
  5 10  1  0  0  0  0
  5  4  1  0  0  0  0
  6  5  2  0  0  0  0
  7  8  2  0  0  0  0
  7  6  1  0  0  0  0
  8  9  1  0  0  0  0
  9 10  2  0  0  0  0
 10  1  1  0  0  0  0
 13 14  1  0  0  0  0
 14 15  1  0  0  0  0
 15 17  1  0  0  0  0
 16 17  1  0  0  0  0
 17 18  1  0  0  0  0
 19 17  1  0  0  0  0
M  END
>  <minimizedAffinity>
-2.06404471

$$$$
