
 OpenBabel09092210413D

 19 20  0  0  0  0  0  0  0  0999 V2000
    1.4800    3.8620    0.3380 N   0  0  0  0  0  0  0  0  0  0  0  0
    2.4950    3.1010    0.8660 C   0  0  0  0  0  0  0  0  0  0  0  0
    2.3660    2.4010    1.9980 N   0  0  0  0  0  0  0  0  0  0  0  0
    3.5900    3.2290    0.1660 N   0  0  0  0  0  0  0  0  0  0  0  0
    3.2470    3.9680   -0.9360 C   0  0  0  0  0  0  0  0  0  0  0  0
    4.0330    4.3570   -2.0300 C   0  0  0  0  0  3  0  0  0  0  0  0
    3.4470    5.1280   -3.0400 C   0  0  0  0  0  3  0  0  0  0  0  0
    2.1050    5.5000   -2.9660 C   0  0  0  0  0  3  0  0  0  0  0  0
    1.3050    5.1290   -1.8780 C   0  0  0  0  0  3  0  0  0  0  0  0
    1.9140    4.3650   -0.8720 C   0  0  0  0  0  0  0  0  0  0  0  0
    3.1700    1.8470    2.2930 H   0  0  0  0  0  0  0  0  0  0  0  0
    1.4850    2.0890    2.3880 H   0  0  0  0  0  0  0  0  0  0  0  0
    0.2660    4.2550    1.0200 C   0  0  0  0  0  2  0  0  0  0  0  0
   -0.8920    3.2520    0.9010 C   0  0  0  0  0  2  0  0  0  0  0  0
   -1.5810    3.1180   -0.4620 C   0  0  0  0  0  2  0  0  0  0  0  0
   -0.5970    1.9920   -2.4970 C   0  0  0  0  0  1  0  0  0  0  0  0
   -1.2850    1.8190   -1.1750 N   0  0  0  0  0  4  0  0  0  0  0  0
   -0.5130    0.8820   -0.2750 C   0  0  0  0  0  1  0  0  0  0  0  0
   -2.1700    1.3250   -1.3400 H   0  0  0  0  0  0  0  0  0  0  0  0
  1  2  1  0  0  0  0
  1 13  1  0  0  0  0
  2  3  1  0  0  0  0
  3 11  1  0  0  0  0
  3 12  1  0  0  0  0
  4  2  2  0  0  0  0
  5 10  1  0  0  0  0
  5  4  1  0  0  0  0
  6  5  2  0  0  0  0
  7  8  2  0  0  0  0
  7  6  1  0  0  0  0
  8  9  1  0  0  0  0
  9 10  2  0  0  0  0
 10  1  1  0  0  0  0
 14 13  1  0  0  0  0
 15 14  1  0  0  0  0
 16 17  1  0  0  0  0
 17 15  1  0  0  0  0
 17 18  1  0  0  0  0
 19 17  1  0  0  0  0
M  END
>  <minimizedAffinity>
-2.14677763

$$$$
