
 OpenBabel09092210413D

 19 20  0  0  0  0  0  0  0  0999 V2000
    2.6660    1.5580    2.4880 N   0  0  0  0  0  0  0  0  0  0  0  0
    3.7630    1.2840    3.2690 C   0  0  0  0  0  0  0  0  0  0  0  0
    4.3060    2.1790    4.1010 N   0  0  0  0  0  0  0  0  0  0  0  0
    4.2300    0.0900    3.0190 N   0  0  0  0  0  0  0  0  0  0  0  0
    3.3290   -0.4950    2.1690 C   0  0  0  0  0  0  0  0  0  0  0  0
    3.3240   -1.7870    1.6250 C   0  0  0  0  0  3  0  0  0  0  0  0
    2.2840   -2.1500    0.7620 C   0  0  0  0  0  3  0  0  0  0  0  0
    1.2660   -1.2480    0.4510 C   0  0  0  0  0  3  0  0  0  0  0  0
    1.2580    0.0500    0.9770 C   0  0  0  0  0  3  0  0  0  0  0  0
    2.3140    0.3970    1.8310 C   0  0  0  0  0  0  0  0  0  0  0  0
    5.1040    1.8700    4.6560 H   0  0  0  0  0  0  0  0  0  0  0  0
    3.8190    2.9780    4.4890 H   0  0  0  0  0  0  0  0  0  0  0  0
    2.1150    2.8700    2.2230 C   0  0  0  0  0  2  0  0  0  0  0  0
    2.7460    3.6020    1.0280 C   0  0  0  0  0  2  0  0  0  0  0  0
    1.8530    3.8870   -0.1850 C   0  0  0  0  0  2  0  0  0  0  0  0
    1.9020    4.5490   -2.6220 C   0  0  0  0  0  1  0  0  0  0  0  0
    2.5720    3.7950   -1.5110 N   0  0  0  0  0  4  0  0  0  0  0  0
    4.0180    4.2100   -1.3640 C   0  0  0  0  0  1  0  0  0  0  0  0
    2.6280    2.8080   -1.7880 H   0  0  0  0  0  0  0  0  0  0  0  0
  1  2  1  0  0  0  0
  2  3  1  0  0  0  0
  3 12  1  0  0  0  0
  3 11  1  0  0  0  0
  4  2  2  0  0  0  0
  5  4  1  0  0  0  0
  6  5  2  0  0  0  0
  7  6  1  0  0  0  0
  8  7  2  0  0  0  0
  8  9  1  0  0  0  0
  9 10  2  0  0  0  0
 10  5  1  0  0  0  0
 10  1  1  0  0  0  0
 13  1  1  0  0  0  0
 14 13  1  0  0  0  0
 15 14  1  0  0  0  0
 16 17  1  0  0  0  0
 17 18  1  0  0  0  0
 17 15  1  0  0  0  0
 19 17  1  0  0  0  0
M  END
>  <minimizedAffinity>
-1.83683968

$$$$
