
 OpenBabel09092210413D

 19 20  0  0  0  0  0  0  0  0999 V2000
    2.1050    4.5590    0.6140 N   0  0  0  0  0  0  0  0  0  0  0  0
    3.4020    4.9340    0.8660 C   0  0  0  0  0  0  0  0  0  0  0  0
    3.9520    4.8800    2.0840 N   0  0  0  0  0  0  0  0  0  0  0  0
    3.9690    5.4140   -0.2090 N   0  0  0  0  0  0  0  0  0  0  0  0
    3.0770    5.2070   -1.2270 C   0  0  0  0  0  0  0  0  0  0  0  0
    3.2020    5.4920   -2.5950 C   0  0  0  0  0  3  0  0  0  0  0  0
    2.1330    5.1910   -3.4460 C   0  0  0  0  0  3  0  0  0  0  0  0
    0.9650    4.6130   -2.9480 C   0  0  0  0  0  3  0  0  0  0  0  0
    0.8170    4.3280   -1.5850 C   0  0  0  0  0  3  0  0  0  0  0  0
    1.8960    4.6460   -0.7470 C   0  0  0  0  0  0  0  0  0  0  0  0
    4.9300    5.1560    2.1630 H   0  0  0  0  0  0  0  0  0  0  0  0
    3.6300    4.2860    2.8380 H   0  0  0  0  0  0  0  0  0  0  0  0
    1.0750    4.3340    1.6050 C   0  0  0  0  0  2  0  0  0  0  0  0
    0.9840    2.8890    2.1200 C   0  0  0  0  0  2  0  0  0  0  0  0
    0.5530    1.8040    1.1270 C   0  0  0  0  0  2  0  0  0  0  0  0
    2.8610    0.9360    1.6760 C   0  0  0  0  0  1  0  0  0  0  0  0
    1.6120    0.7580    0.8630 N   0  0  0  0  0  4  0  0  0  0  0  0
    1.0420   -0.6310    1.0340 C   0  0  0  0  0  1  0  0  0  0  0  0
    1.8720    0.7950   -0.1290 H   0  0  0  0  0  0  0  0  0  0  0  0
  1  2  1  0  0  0  0
  1 13  1  0  0  0  0
  2  3  1  0  0  0  0
  3 11  1  0  0  0  0
  3 12  1  0  0  0  0
  4  2  2  0  0  0  0
  5 10  1  0  0  0  0
  5  4  1  0  0  0  0
  6  5  2  0  0  0  0
  7  8  2  0  0  0  0
  7  6  1  0  0  0  0
  8  9  1  0  0  0  0
  9 10  2  0  0  0  0
 10  1  1  0  0  0  0
 13 14  1  0  0  0  0
 15 14  1  0  0  0  0
 17 18  1  0  0  0  0
 17 15  1  0  0  0  0
 17 16  1  0  0  0  0
 19 17  1  0  0  0  0
M  END
>  <minimizedAffinity>
-2.08947873

$$$$
