
 OpenBabel09092210413D

 19 20  0  0  0  0  0  0  0  0999 V2000
    1.2090    4.3520    0.2200 N   0  0  0  0  0  0  0  0  0  0  0  0
    2.1660    4.2690    1.2030 C   0  0  0  0  0  0  0  0  0  0  0  0
    1.8700    4.2300    2.5060 N   0  0  0  0  0  0  0  0  0  0  0  0
    3.3680    4.3190    0.6930 N   0  0  0  0  0  0  0  0  0  0  0  0
    3.2000    4.2780   -0.6660 C   0  0  0  0  0  0  0  0  0  0  0  0
    4.1640    4.2600   -1.6840 C   0  0  0  0  0  3  0  0  0  0  0  0
    3.7370    4.2250   -3.0160 C   0  0  0  0  0  3  0  0  0  0  0  0
    2.3770    4.2030   -3.3290 C   0  0  0  0  0  3  0  0  0  0  0  0
    1.3990    4.2280   -2.3280 C   0  0  0  0  0  3  0  0  0  0  0  0
    1.8480    4.2740   -1.0000 C   0  0  0  0  0  0  0  0  0  0  0  0
    2.6500    4.1420    3.1560 H   0  0  0  0  0  0  0  0  0  0  0  0
    0.9810    3.9310    2.8880 H   0  0  0  0  0  0  0  0  0  0  0  0
   -0.1850    4.6880    0.4150 C   0  0  0  0  0  2  0  0  0  0  0  0
   -1.0950    3.4920    0.7370 C   0  0  0  0  0  2  0  0  0  0  0  0
   -0.6980    2.1230    0.1740 C   0  0  0  0  0  2  0  0  0  0  0  0
    1.1570    0.7390    1.1830 C   0  0  0  0  0  1  0  0  0  0  0  0
   -0.2930    1.1200    1.2290 N   0  0  0  0  0  4  0  0  0  0  0  0
   -0.6880    1.6040    2.6050 C   0  0  0  0  0  1  0  0  0  0  0  0
   -0.8490    0.2660    1.1020 H   0  0  0  0  0  0  0  0  0  0  0  0
  1 13  1  0  0  0  0
  1  2  1  0  0  0  0
  2  3  1  0  0  0  0
  3 12  1  0  0  0  0
  3 11  1  0  0  0  0
  4  2  2  0  0  0  0
  5  4  1  0  0  0  0
  6  5  2  0  0  0  0
  7  6  1  0  0  0  0
  8  7  2  0  0  0  0
  8  9  1  0  0  0  0
  9 10  2  0  0  0  0
 10  5  1  0  0  0  0
 10  1  1  0  0  0  0
 13 14  1  0  0  0  0
 15 14  1  0  0  0  0
 15 17  1  0  0  0  0
 16 17  1  0  0  0  0
 17 18  1  0  0  0  0
 19 17  1  0  0  0  0
M  END
>  <minimizedAffinity>
-1.95395315

$$$$
