
 OpenBabel09092210413D

 19 20  0  0  0  0  0  0  0  0999 V2000
    1.5250    4.2110    0.4830 N   0  0  0  0  0  0  0  0  0  0  0  0
    0.2050    4.2850    0.1090 C   0  0  0  0  0  0  0  0  0  0  0  0
   -0.7980    4.3570    0.9890 N   0  0  0  0  0  0  0  0  0  0  0  0
    0.0790    4.1910   -1.1880 N   0  0  0  0  0  0  0  0  0  0  0  0
    1.3530    4.2120   -1.6910 C   0  0  0  0  0  0  0  0  0  0  0  0
    1.7880    4.1840   -3.0240 C   0  0  0  0  0  3  0  0  0  0  0  0
    3.1620    4.2060   -3.2860 C   0  0  0  0  0  3  0  0  0  0  0  0
    4.0860    4.2610   -2.2420 C   0  0  0  0  0  3  0  0  0  0  0  0
    3.6740    4.2820   -0.9040 C   0  0  0  0  0  3  0  0  0  0  0  0
    2.2930    4.2480   -0.6630 C   0  0  0  0  0  0  0  0  0  0  0  0
   -1.7420    4.4340    0.6110 H   0  0  0  0  0  0  0  0  0  0  0  0
   -0.7080    4.6880    1.9420 H   0  0  0  0  0  0  0  0  0  0  0  0
    2.0190    3.9180    1.8110 C   0  0  0  0  0  2  0  0  0  0  0  0
    2.5260    5.1410    2.5920 C   0  0  0  0  0  2  0  0  0  0  0  0
    4.0420    5.3130    2.7420 C   0  0  0  0  0  2  0  0  0  0  0  0
    3.5390    5.1620    5.2120 C   0  0  0  0  0  1  0  0  0  0  0  0
    4.5610    4.9980    4.1260 N   0  0  0  0  0  4  0  0  0  0  0  0
    5.1820    3.6200    4.1620 C   0  0  0  0  0  1  0  0  0  0  0  0
    5.3470    5.6250    4.3330 H   0  0  0  0  0  0  0  0  0  0  0  0
  1 13  1  0  0  0  0
  2  1  1  0  0  0  0
  2  3  1  0  0  0  0
  3 12  1  0  0  0  0
  4  2  2  0  0  0  0
  5  4  1  0  0  0  0
  5 10  1  0  0  0  0
  6  5  2  0  0  0  0
  7  6  1  0  0  0  0
  7  8  2  0  0  0  0
  8  9  1  0  0  0  0
  9 10  2  0  0  0  0
 10  1  1  0  0  0  0
 11  3  1  0  0  0  0
 13 14  1  0  0  0  0
 14 15  1  0  0  0  0
 15 17  1  0  0  0  0
 17 18  1  0  0  0  0
 17 19  1  0  0  0  0
 17 16  1  0  0  0  0
M  END
>  <minimizedAffinity>
-1.84930062

$$$$
