
 OpenBabel09122222393D

 39 44  0  0  1  0  0  0  0  0999 V2000
    6.1310    2.5940   11.9890 C   0  0  0  0  0  0  0  0  0  0  0  0
    4.8670    2.5760   11.3930 C   0  0  0  0  0  3  0  0  0  0  0  0
    4.0500    1.4470   11.5160 C   0  0  0  0  0  3  0  0  0  0  0  0
    4.4980    0.3130   12.2020 C   0  0  0  0  0  0  0  0  0  0  0  0
    5.7630    0.3240   12.7830 C   0  0  0  0  0  3  0  0  0  0  0  0
    6.5660    1.4590   12.6750 C   0  0  0  0  0  0  0  0  0  0  0  0
    7.7550    1.4540   13.2970 F   0  0  0  0  0  0  0  0  0  0  0  0
    9.2940    7.6580   12.4170 C   0  0  0  0  0  0  0  0  0  0  0  0
    9.7270    7.3170   11.1250 C   0  0  0  0  0  3  0  0  0  0  0  0
    9.2870    6.1590   10.4710 C   0  0  0  0  0  3  0  0  0  0  0  0
    8.3840    5.3340   11.1540 C   0  0  0  0  0  0  0  0  0  0  0  0
    7.9360    5.6370   12.4370 C   0  0  0  0  0  0  0  0  0  0  0  0
    8.3880    6.8040   13.0750 C   0  0  0  0  0  3  0  0  0  0  0  0
    7.0730    4.6710   12.8950 N   0  0  0  0  0  0  0  0  0  0  0  0
    6.9540    3.7950   11.9190 C   0  0  0  0  0  0  0  0  0  0  0  0
    7.7520    4.1470   10.8430 N   0  0  0  0  0  0  0  0  0  0  0  0
    7.9230    3.3590    9.6250 C   0  0  0  0  0  3  0  0  0  0  0  0
    7.7990    4.1950    8.3420 C   0  0  0  0  0  2  0  0  0  0  0  0
    7.9310    3.3190    7.0970 C   0  0  0  0  0  2  0  0  0  0  0  0
    9.2150    2.4920    7.1190 C   0  0  0  0  0  2  0  0  0  0  0  0
    9.3220    1.6510    8.3890 C   0  0  0  0  0  2  0  0  0  0  0  0
    9.2060    2.5120    9.6450 C   0  0  0  0  0  2  0  0  0  0  0  0
    8.9200    9.7690   13.4530 O   0  0  0  0  0  1  0  0  0  0  0  0
    9.7960    8.9210   13.0870 C   0  0  0  0  0  0  0  0  0  0  0  0
   11.0530    9.0440   13.2340 O   0  0  0  0  0  0  0  0  0  0  0  0
    3.5830   -0.6950   12.3120 O   0  0  0  0  0  0  0  0  0  0  0  0
    3.7020   -1.8870   11.5000 C   0  0  1  0  0  3  0  0  0  0  0  0
    2.9060   -3.0640   12.0660 C   0  0  0  0  0  0  0  0  0  0  0  0
    3.1980   -4.4050   11.7690 C   0  0  0  0  0  3  0  0  0  0  0  0
    2.4230   -5.4390   12.3000 C   0  0  0  0  0  3  0  0  0  0  0  0
    1.3400   -5.1510   13.1270 C   0  0  0  0  0  3  0  0  0  0  0  0
    1.0260   -3.8280   13.4220 C   0  0  0  0  0  3  0  0  0  0  0  0
    1.8000   -2.7930   12.8930 C   0  0  0  0  0  3  0  0  0  0  0  0
    3.6930   -1.6460    9.9960 C   0  0  0  0  0  0  0  0  0  0  0  0
    2.5490   -1.2350    9.3000 C   0  0  0  0  0  3  0  0  0  0  0  0
    2.6070   -0.9930    7.9300 C   0  0  0  0  0  3  0  0  0  0  0  0
    3.8250   -1.1380    7.2910 C   0  0  0  0  0  3  0  0  0  0  0  0
    4.9630   -1.4860    7.9240 N   0  0  0  0  0  0  0  0  0  0  0  0
    4.8730   -1.7220    9.2540 C   0  0  0  0  0  3  0  0  0  0  0  0
  1  6  1  0  0  0  0
  2  3  1  0  0  0  0
  2  1  2  0  0  0  0
  3  4  2  0  0  0  0
  4 26  1  0  0  0  0
  4  5  1  0  0  0  0
  6  5  2  0  0  0  0
  6  7  1  0  0  0  0
  8 13  1  0  0  0  0
  8 24  1  0  0  0  0
  9  8  2  0  0  0  0
 10  9  1  0  0  0  0
 10 11  2  0  0  0  0
 11 12  1  0  0  0  0
 12 14  1  0  0  0  0
 12 13  2  0  0  0  0
 15  1  1  0  0  0  0
 15 14  2  0  0  0  0
 16 11  1  0  0  0  0
 16 15  1  0  0  0  0
 17 22  1  0  0  0  0
 17 16  1  0  0  0  0
 18 17  1  0  0  0  0
 19 20  1  0  0  0  0
 19 18  1  0  0  0  0
 20 21  1  0  0  0  0
 21 22  1  0  0  0  0
 24 25  2  0  0  0  0
 24 23  1  0  0  0  0
 27 28  1  0  0  0  0
 27 26  1  1  0  0  0
 28 33  1  0  0  0  0
 29 28  2  0  0  0  0
 29 30  1  0  0  0  0
 30 31  2  0  0  0  0
 31 32  1  0  0  0  0
 33 32  2  0  0  0  0
 34 27  1  0  0  0  0
 35 34  1  0  0  0  0
 36 35  2  0  0  0  0
 37 38  2  0  0  0  0
 37 36  1  0  0  0  0
 38 39  1  0  0  0  0
 39 34  2  0  0  0  0
M  END
>  <minimizedAffinity>
-7.55078983

$$$$
