
 OpenBabel09122222393D

 39 44  0  0  1  0  0  0  0  0999 V2000
    6.5730    2.4660   11.7120 C   0  0  0  0  0  0  0  0  0  0  0  0
    5.1910    2.4140   11.5050 C   0  0  0  0  0  3  0  0  0  0  0  0
    4.5080    1.2020   11.6450 C   0  0  0  0  0  3  0  0  0  0  0  0
    5.1970    0.0250   11.9550 C   0  0  0  0  0  0  0  0  0  0  0  0
    6.5750    0.0730   12.1470 C   0  0  0  0  0  3  0  0  0  0  0  0
    7.2500    1.2870   12.0270 C   0  0  0  0  0  0  0  0  0  0  0  0
    8.5680    1.3060   12.2740 F   0  0  0  0  0  0  0  0  0  0  0  0
    9.2580    7.8010   12.1170 C   0  0  0  0  0  0  0  0  0  0  0  0
    9.6650    7.5250   10.8010 C   0  0  0  0  0  3  0  0  0  0  0  0
    9.3090    6.3420   10.1420 C   0  0  0  0  0  3  0  0  0  0  0  0
    8.5180    5.4240   10.8430 C   0  0  0  0  0  0  0  0  0  0  0  0
    8.0990    5.6590   12.1500 C   0  0  0  0  0  0  0  0  0  0  0  0
    8.4670    6.8530   12.7940 C   0  0  0  0  0  3  0  0  0  0  0  0
    7.3520    4.6080   12.6230 N   0  0  0  0  0  0  0  0  0  0  0  0
    7.2750    3.7410   11.6340 C   0  0  0  0  0  0  0  0  0  0  0  0
    7.9890    4.1870   10.5330 N   0  0  0  0  0  0  0  0  0  0  0  0
    8.1810    3.4400    9.2920 C   0  0  0  0  0  3  0  0  0  0  0  0
    7.8240    4.2520    8.0370 C   0  0  0  0  0  2  0  0  0  0  0  0
    7.9890    3.4120    6.7710 C   0  0  0  0  0  2  0  0  0  0  0  0
    9.3830    2.7950    6.6780 C   0  0  0  0  0  2  0  0  0  0  0  0
    9.7230    1.9770    7.9200 C   0  0  0  0  0  2  0  0  0  0  0  0
    9.5770    2.8040    9.1960 C   0  0  0  0  0  2  0  0  0  0  0  0
    8.7710    9.7090   13.4550 O   0  0  0  0  0  1  0  0  0  0  0  0
    9.6670    9.0940   12.7930 C   0  0  0  0  0  0  0  0  0  0  0  0
   10.8730    9.4720   12.6490 O   0  0  0  0  0  0  0  0  0  0  0  0
    4.4090   -1.0770   12.1330 O   0  0  0  0  0  0  0  0  0  0  0  0
    4.4000   -2.1390   11.1510 C   0  0  1  0  0  3  0  0  0  0  0  0
    3.7940   -1.7010    9.8170 C   0  0  0  0  0  0  0  0  0  0  0  0
    2.4340   -1.8530    9.5010 C   0  0  0  0  0  3  0  0  0  0  0  0
    1.9400   -1.4520    8.2580 C   0  0  0  0  0  3  0  0  0  0  0  0
    2.7960   -0.9010    7.3070 C   0  0  0  0  0  3  0  0  0  0  0  0
    4.1490   -0.7540    7.5950 C   0  0  0  0  0  3  0  0  0  0  0  0
    4.6450   -1.1540    8.8380 C   0  0  0  0  0  3  0  0  0  0  0  0
    5.6440   -3.0180   11.1410 C   0  0  0  0  0  0  0  0  0  0  0  0
    6.2010   -3.5590   12.3080 C   0  0  0  0  0  3  0  0  0  0  0  0
    7.3180   -4.3880   12.2360 C   0  0  0  0  0  3  0  0  0  0  0  0
    7.8340   -4.6850   10.9870 C   0  0  0  0  0  3  0  0  0  0  0  0
    7.3070   -4.2270    9.8340 N   0  0  0  0  0  0  0  0  0  0  0  0
    6.2260   -3.4170    9.9370 C   0  0  0  0  0  3  0  0  0  0  0  0
  1  6  1  0  0  0  0
  2  3  1  0  0  0  0
  2  1  2  0  0  0  0
  3  4  2  0  0  0  0
  4 26  1  0  0  0  0
  4  5  1  0  0  0  0
  6  5  2  0  0  0  0
  6  7  1  0  0  0  0
  8 24  1  0  0  0  0
  8 13  1  0  0  0  0
  9  8  2  0  0  0  0
 10  9  1  0  0  0  0
 10 11  2  0  0  0  0
 11 12  1  0  0  0  0
 12 14  1  0  0  0  0
 12 13  2  0  0  0  0
 15  1  1  0  0  0  0
 15 14  2  0  0  0  0
 16 11  1  0  0  0  0
 16 15  1  0  0  0  0
 17 16  1  0  0  0  0
 18 17  1  0  0  0  0
 19 18  1  0  0  0  0
 20 19  1  0  0  0  0
 20 21  1  0  0  0  0
 21 22  1  0  0  0  0
 22 17  1  0  0  0  0
 24 23  1  0  0  0  0
 25 24  2  0  0  0  0
 27 26  1  1  0  0  0
 28 27  1  0  0  0  0
 29 28  1  0  0  0  0
 30 29  2  0  0  0  0
 31 32  2  0  0  0  0
 31 30  1  0  0  0  0
 32 33  1  0  0  0  0
 33 28  2  0  0  0  0
 34 27  1  0  0  0  0
 34 35  1  0  0  0  0
 36 35  2  0  0  0  0
 37 36  1  0  0  0  0
 38 39  1  0  0  0  0
 38 37  2  0  0  0  0
 39 34  2  0  0  0  0
M  END
>  <minimizedAffinity>
-7.02432203

$$$$
