
 OpenBabel09122222393D

 39 44  0  0  1  0  0  0  0  0999 V2000
    6.6380    1.6890   10.2920 C   0  0  0  0  0  0  0  0  0  0  0  0
    7.4000    0.6470    9.7550 C   0  0  0  0  0  3  0  0  0  0  0  0
    6.7940   -0.5720    9.4360 C   0  0  0  0  0  3  0  0  0  0  0  0
    5.4330   -0.7790    9.6830 C   0  0  0  0  0  0  0  0  0  0  0  0
    4.6760    0.2520   10.2320 C   0  0  0  0  0  3  0  0  0  0  0  0
    5.2790    1.4740   10.5290 C   0  0  0  0  0  0  0  0  0  0  0  0
    4.5070    2.4630   11.0020 F   0  0  0  0  0  0  0  0  0  0  0  0
    8.7920    6.9910   12.0480 C   0  0  0  0  0  0  0  0  0  0  0  0
    9.5350    6.9110   10.8590 C   0  0  0  0  0  3  0  0  0  0  0  0
    9.4320    5.8210    9.9860 C   0  0  0  0  0  3  0  0  0  0  0  0
    8.5490    4.7920   10.3360 C   0  0  0  0  0  0  0  0  0  0  0  0
    7.8000    4.8330   11.5090 C   0  0  0  0  0  0  0  0  0  0  0  0
    7.9170    5.9360   12.3710 C   0  0  0  0  0  3  0  0  0  0  0  0
    7.0250    3.7050   11.6360 N   0  0  0  0  0  0  0  0  0  0  0  0
    7.2550    2.9820   10.5590 C   0  0  0  0  0  0  0  0  0  0  0  0
    8.1950    3.5950    9.7470 N   0  0  0  0  0  0  0  0  0  0  0  0
    8.7410    3.0330    8.5140 C   0  0  0  0  0  3  0  0  0  0  0  0
    8.4850    3.9150    7.2820 C   0  0  0  0  0  2  0  0  0  0  0  0
    9.0260    3.2600    6.0120 C   0  0  0  0  0  2  0  0  0  0  0  0
   10.5000    2.8850    6.1510 C   0  0  0  0  0  2  0  0  0  0  0  0
   10.7440    1.9950    7.3670 C   0  0  0  0  0  2  0  0  0  0  0  0
   10.2210    2.6400    8.6500 C   0  0  0  0  0  2  0  0  0  0  0  0
   10.1130    8.6180   13.1770 O   0  0  0  0  0  0  0  0  0  0  0  0
    8.9340    8.1890   12.9650 C   0  0  0  0  0  0  0  0  0  0  0  0
    7.8680    8.6780   13.4560 O   0  0  0  0  0  1  0  0  0  0  0  0
    4.9460   -1.9850    9.2650 O   0  0  0  0  0  0  0  0  0  0  0  0
    3.5270   -2.1710    9.0560 C   0  0  1  0  0  3  0  0  0  0  0  0
    3.1570   -2.2500    7.5740 C   0  0  0  0  0  0  0  0  0  0  0  0
    2.1100   -1.5100    7.0010 C   0  0  0  0  0  3  0  0  0  0  0  0
    1.8050   -1.6370    5.6440 C   0  0  0  0  0  3  0  0  0  0  0  0
    2.5320   -2.5110    4.8400 C   0  0  0  0  0  3  0  0  0  0  0  0
    3.5630   -3.2650    5.3920 C   0  0  0  0  0  3  0  0  0  0  0  0
    3.8710   -3.1380    6.7480 C   0  0  0  0  0  3  0  0  0  0  0  0
    2.8510   -3.1220   10.0360 C   0  0  0  0  0  0  0  0  0  0  0  0
    1.4630   -3.1560   10.2260 C   0  0  0  0  0  3  0  0  0  0  0  0
    0.8950   -4.0730   11.1080 C   0  0  0  0  0  3  0  0  0  0  0  0
    1.7330   -4.9620   11.7570 C   0  0  0  0  0  3  0  0  0  0  0  0
    3.0680   -5.0000   11.5730 N   0  0  0  0  0  0  0  0  0  0  0  0
    3.5910   -4.0910   10.7160 C   0  0  0  0  0  3  0  0  0  0  0  0
  1  6  1  0  0  0  0
  1 15  1  0  0  0  0
  2  1  2  0  0  0  0
  3  4  2  0  0  0  0
  3  2  1  0  0  0  0
  4  5  1  0  0  0  0
  5  6  2  0  0  0  0
  6  7  1  0  0  0  0
  8 13  1  0  0  0  0
  8 24  1  0  0  0  0
  9  8  2  0  0  0  0
 10 11  2  0  0  0  0
 10  9  1  0  0  0  0
 11 12  1  0  0  0  0
 12 14  1  0  0  0  0
 12 13  2  0  0  0  0
 15 14  2  0  0  0  0
 16 11  1  0  0  0  0
 16 15  1  0  0  0  0
 17 22  1  0  0  0  0
 17 16  1  0  0  0  0
 18 17  1  0  0  0  0
 19 20  1  0  0  0  0
 19 18  1  0  0  0  0
 20 21  1  0  0  0  0
 21 22  1  0  0  0  0
 24 23  2  0  0  0  0
 24 25  1  0  0  0  0
 26  4  1  0  0  0  0
 27 26  1  6  0  0  0
 27 34  1  0  0  0  0
 28 27  1  0  0  0  0
 29 28  1  0  0  0  0
 30 29  2  0  0  0  0
 31 32  2  0  0  0  0
 31 30  1  0  0  0  0
 32 33  1  0  0  0  0
 33 28  2  0  0  0  0
 34 35  2  0  0  0  0
 34 39  1  0  0  0  0
 35 36  1  0  0  0  0
 36 37  2  0  0  0  0
 38 37  1  0  0  0  0
 39 38  2  0  0  0  0
M  END
>  <minimizedAffinity>
-7.01054478

$$$$
