
 OpenBabel09122222393D

 39 44  0  0  1  0  0  0  0  0999 V2000
   10.7360    3.8910    8.5400 C   0  0  0  0  0  0  0  0  0  0  0  0
   11.2700    4.0010    9.8270 C   0  0  0  0  0  3  0  0  0  0  0  0
   11.6370    5.2530   10.3280 C   0  0  0  0  0  3  0  0  0  0  0  0
   11.5130    6.4020    9.5400 C   0  0  0  0  0  0  0  0  0  0  0  0
   10.9960    6.2920    8.2530 C   0  0  0  0  0  3  0  0  0  0  0  0
   10.6120    5.0440    7.7640 C   0  0  0  0  0  0  0  0  0  0  0  0
   10.0650    4.9840    6.5400 F   0  0  0  0  0  0  0  0  0  0  0  0
    9.4290   -1.3500    5.9600 C   0  0  0  0  0  0  0  0  0  0  0  0
    8.5290   -1.4790    7.0300 C   0  0  0  0  0  3  0  0  0  0  0  0
    8.3930   -0.4920    8.0140 C   0  0  0  0  0  3  0  0  0  0  0  0
    9.1930    0.6520    7.8990 C   0  0  0  0  0  0  0  0  0  0  0  0
   10.1010    0.8130    6.8540 C   0  0  0  0  0  0  0  0  0  0  0  0
   10.2210   -0.1890    5.8770 C   0  0  0  0  0  3  0  0  0  0  0  0
   10.7750    2.0040    6.9710 N   0  0  0  0  0  0  0  0  0  0  0  0
   10.2900    2.5950    8.0430 C   0  0  0  0  0  0  0  0  0  0  0  0
    9.3360    1.7980    8.6540 N   0  0  0  0  0  0  0  0  0  0  0  0
    8.6520    2.1090    9.9070 C   0  0  0  0  0  3  0  0  0  0  0  0
    7.1550    2.4030    9.7220 C   0  0  0  0  0  2  0  0  0  0  0  0
    6.4970    2.7760   11.0500 C   0  0  0  0  0  2  0  0  0  0  0  0
    6.7440    1.7160   12.1220 C   0  0  0  0  0  2  0  0  0  0  0  0
    8.2340    1.4420   12.3120 C   0  0  0  0  0  2  0  0  0  0  0  0
    8.9070    1.0550   10.9960 C   0  0  0  0  0  2  0  0  0  0  0  0
   10.6400   -2.5170    4.2740 O   0  0  0  0  0  0  0  0  0  0  0  0
    9.5440   -2.4440    4.9160 C   0  0  0  0  0  0  0  0  0  0  0  0
    8.5400   -3.2070    4.7570 O   0  0  0  0  0  1  0  0  0  0  0  0
   11.8390    7.5710   10.1670 O   0  0  0  0  0  0  0  0  0  0  0  0
   10.8760    8.6450   10.2680 C   0  0  1  0  0  3  0  0  0  0  0  0
    9.7600    8.3400   11.2690 C   0  0  0  0  0  0  0  0  0  0  0  0
    9.7370    8.8500   12.5770 C   0  0  0  0  0  3  0  0  0  0  0  0
    8.7000    8.5210   13.4540 C   0  0  0  0  0  3  0  0  0  0  0  0
    7.6770    7.6710   13.0430 C   0  0  0  0  0  3  0  0  0  0  0  0
    7.6890    7.1430   11.7560 C   0  0  0  0  0  3  0  0  0  0  0  0
    8.7230    7.4720   10.8770 C   0  0  0  0  0  3  0  0  0  0  0  0
   11.4670   10.0480   10.2300 C   0  0  0  0  0  0  0  0  0  0  0  0
   10.6770   11.2050   10.2350 C   0  0  0  0  0  3  0  0  0  0  0  0
   11.2720   12.4640   10.2370 C   0  0  0  0  0  3  0  0  0  0  0  0
   12.6530   12.5350   10.2680 C   0  0  0  0  0  3  0  0  0  0  0  0
   13.4550   11.4530   10.3100 N   0  0  0  0  0  0  0  0  0  0  0  0
   12.8470   10.2430   10.2990 C   0  0  0  0  0  3  0  0  0  0  0  0
  1  2  1  0  0  0  0
  2  3  2  0  0  0  0
  4 26  1  0  0  0  0
  4  3  1  0  0  0  0
  5  4  2  0  0  0  0
  6  5  1  0  0  0  0
  6  1  2  0  0  0  0
  7  6  1  0  0  0  0
  8  9  1  0  0  0  0
  9 10  2  0  0  0  0
 11 10  1  0  0  0  0
 11 16  1  0  0  0  0
 12 14  1  0  0  0  0
 12 11  2  0  0  0  0
 13  8  2  0  0  0  0
 13 12  1  0  0  0  0
 14 15  2  0  0  0  0
 15  1  1  0  0  0  0
 15 16  1  0  0  0  0
 16 17  1  0  0  0  0
 17 22  1  0  0  0  0
 18 17  1  0  0  0  0
 18 19  1  0  0  0  0
 19 20  1  0  0  0  0
 20 21  1  0  0  0  0
 22 21  1  0  0  0  0
 23 24  2  0  0  0  0
 24  8  1  0  0  0  0
 25 24  1  0  0  0  0
 27 26  1  1  0  0  0
 27 28  1  0  0  0  0
 28 29  1  0  0  0  0
 29 30  2  0  0  0  0
 31 30  1  0  0  0  0
 32 31  2  0  0  0  0
 33 28  2  0  0  0  0
 33 32  1  0  0  0  0
 34 35  2  0  0  0  0
 34 27  1  0  0  0  0
 34 39  1  0  0  0  0
 35 36  1  0  0  0  0
 36 37  2  0  0  0  0
 37 38  1  0  0  0  0
 39 38  2  0  0  0  0
M  END
>  <minimizedAffinity>
-7.3134017

$$$$
