
 OpenBabel09122222393D

 39 44  0  0  1  0  0  0  0  0999 V2000
    8.8040    0.3510    8.4300 C   0  0  0  0  0  0  0  0  0  0  0  0
    8.4260    1.6970    8.4120 C   0  0  0  0  0  3  0  0  0  0  0  0
    8.4710    2.4520    9.5880 C   0  0  0  0  0  3  0  0  0  0  0  0
    8.8570    1.8670   10.7980 C   0  0  0  0  0  0  0  0  0  0  0  0
    9.2190    0.5240   10.8200 C   0  0  0  0  0  3  0  0  0  0  0  0
    9.1930   -0.2210    9.6420 C   0  0  0  0  0  0  0  0  0  0  0  0
    9.6040   -1.4970    9.6900 F   0  0  0  0  0  0  0  0  0  0  0  0
    9.4690   -2.3720    3.1400 C   0  0  0  0  0  0  0  0  0  0  0  0
    8.4370   -3.2010    3.6100 C   0  0  0  0  0  3  0  0  0  0  0  0
    7.8500   -3.0230    4.8690 C   0  0  0  0  0  3  0  0  0  0  0  0
    8.3290   -1.9730    5.6630 C   0  0  0  0  0  0  0  0  0  0  0  0
    9.3540   -1.1330    5.2340 C   0  0  0  0  0  0  0  0  0  0  0  0
    9.9280   -1.3280    3.9670 C   0  0  0  0  0  3  0  0  0  0  0  0
    9.6540   -0.1970    6.1940 N   0  0  0  0  0  0  0  0  0  0  0  0
    8.8240   -0.4180    7.1920 C   0  0  0  0  0  0  0  0  0  0  0  0
    8.0090   -1.5060    6.9220 N   0  0  0  0  0  0  0  0  0  0  0  0
    7.0290   -2.0760    7.8420 C   0  0  0  0  0  3  0  0  0  0  0  0
    5.5810   -1.7000    7.4920 C   0  0  0  0  0  2  0  0  0  0  0  0
    4.5990   -2.2730    8.5130 C   0  0  0  0  0  2  0  0  0  0  0  0
    4.7740   -3.7810    8.6830 C   0  0  0  0  0  2  0  0  0  0  0  0
    6.2100   -4.1450    9.0470 C   0  0  0  0  0  2  0  0  0  0  0  0
    7.2060   -3.5910    8.0300 C   0  0  0  0  0  2  0  0  0  0  0  0
   11.2500   -3.0910    1.7330 O   0  0  0  0  0  1  0  0  0  0  0  0
   10.0770   -2.6000    1.7700 C   0  0  0  0  0  0  0  0  0  0  0  0
    9.3720   -2.2850    0.7600 O   0  0  0  0  0  0  0  0  0  0  0  0
    8.9260    2.7250   11.8590 O   0  0  0  0  0  0  0  0  0  0  0  0
    7.7200    3.1990   12.5010 C   0  0  1  0  0  3  0  0  0  0  0  0
    7.5640    4.7170   12.4120 C   0  0  0  0  0  0  0  0  0  0  0  0
    8.1510    5.4940   11.4000 C   0  0  0  0  0  3  0  0  0  0  0  0
    7.9890    6.8820   11.3800 C   0  0  0  0  0  3  0  0  0  0  0  0
    7.2490    7.5160   12.3740 C   0  0  0  0  0  3  0  0  0  0  0  0
    6.6710    6.7660   13.3930 C   0  0  0  0  0  3  0  0  0  0  0  0
    6.8300    5.3790   13.4150 C   0  0  0  0  0  3  0  0  0  0  0  0
    6.4930    2.3190   12.2970 C   0  0  0  0  0  0  0  0  0  0  0  0
    5.5550    2.5480   11.2810 C   0  0  0  0  0  3  0  0  0  0  0  0
    4.4710    1.6880   11.1160 C   0  0  0  0  0  3  0  0  0  0  0  0
    4.3690    0.5950   11.9570 C   0  0  0  0  0  3  0  0  0  0  0  0
    5.2690    0.3060   12.9190 N   0  0  0  0  0  0  0  0  0  0  0  0
    6.3070    1.1640   13.0590 C   0  0  0  0  0  3  0  0  0  0  0  0
  1  6  1  0  0  0  0
  2  1  2  0  0  0  0
  2  3  1  0  0  0  0
  3  4  2  0  0  0  0
  4  5  1  0  0  0  0
  4 26  1  0  0  0  0
  6  7  1  0  0  0  0
  6  5  2  0  0  0  0
  8  9  2  0  0  0  0
  8 13  1  0  0  0  0
  9 10  1  0  0  0  0
 10 11  2  0  0  0  0
 11 16  1  0  0  0  0
 12 11  1  0  0  0  0
 12 14  1  0  0  0  0
 13 12  2  0  0  0  0
 14 15  2  0  0  0  0
 15  1  1  0  0  0  0
 16 15  1  0  0  0  0
 16 17  1  0  0  0  0
 17 22  1  0  0  0  0
 18 17  1  0  0  0  0
 18 19  1  0  0  0  0
 19 20  1  0  0  0  0
 20 21  1  0  0  0  0
 22 21  1  0  0  0  0
 23 24  1  0  0  0  0
 24  8  1  0  0  0  0
 25 24  2  0  0  0  0
 27 26  1  6  0  0  0
 28 27  1  0  0  0  0
 28 33  1  0  0  0  0
 29 28  2  0  0  0  0
 30 29  1  0  0  0  0
 30 31  2  0  0  0  0
 31 32  1  0  0  0  0
 32 33  2  0  0  0  0
 34 27  1  0  0  0  0
 34 39  1  0  0  0  0
 35 34  2  0  0  0  0
 36 35  1  0  0  0  0
 36 37  2  0  0  0  0
 37 38  1  0  0  0  0
 38 39  2  0  0  0  0
M  END
>  <minimizedAffinity>
-7.22210455

$$$$
