
 OpenBabel09122222393D

 39 44  0  0  1  0  0  0  0  0999 V2000
   10.9150    3.8550    9.1060 C   0  0  0  0  0  0  0  0  0  0  0  0
   10.7860    4.9630    8.2630 C   0  0  0  0  0  3  0  0  0  0  0  0
   11.1030    6.2410    8.7330 C   0  0  0  0  0  3  0  0  0  0  0  0
   11.5160    6.4340   10.0550 C   0  0  0  0  0  0  0  0  0  0  0  0
   11.6310    5.3340   10.9000 C   0  0  0  0  0  3  0  0  0  0  0  0
   11.3330    4.0580   10.4220 C   0  0  0  0  0  0  0  0  0  0  0  0
   11.5100    3.0150   11.2480 F   0  0  0  0  0  0  0  0  0  0  0  0
    9.0920   -1.4650    7.0540 C   0  0  0  0  0  0  0  0  0  0  0  0
   10.4680   -1.7140    6.9210 C   0  0  0  0  0  3  0  0  0  0  0  0
   11.4360   -0.7640    7.2710 C   0  0  0  0  0  3  0  0  0  0  0  0
   10.9860    0.4650    7.7710 C   0  0  0  0  0  0  0  0  0  0  0  0
    9.6310    0.7500    7.9130 C   0  0  0  0  0  0  0  0  0  0  0  0
    8.6760   -0.2170    7.5560 C   0  0  0  0  0  3  0  0  0  0  0  0
    9.4450    2.0190    8.4050 N   0  0  0  0  0  0  0  0  0  0  0  0
   10.6500    2.5160    8.5970 C   0  0  0  0  0  0  0  0  0  0  0  0
   11.6230    1.6100    8.2040 N   0  0  0  0  0  0  0  0  0  0  0  0
   13.0620    1.8630    8.2050 C   0  0  0  0  0  3  0  0  0  0  0  0
   13.8770    0.7110    8.8130 C   0  0  0  0  0  2  0  0  0  0  0  0
   15.3680    1.0450    8.8420 C   0  0  0  0  0  2  0  0  0  0  0  0
   15.8860    1.4470    7.4620 C   0  0  0  0  0  2  0  0  0  0  0  0
   15.0820    2.6030    6.8730 C   0  0  0  0  0  2  0  0  0  0  0  0
   13.5880    2.2820    6.8240 C   0  0  0  0  0  2  0  0  0  0  0  0
    7.8960   -2.7130    5.4180 O   0  0  0  0  0  0  0  0  0  0  0  0
    8.0780   -2.5210    6.6620 C   0  0  0  0  0  0  0  0  0  0  0  0
    7.4840   -3.1370    7.6030 O   0  0  0  0  0  1  0  0  0  0  0  0
   11.8630    7.7170   10.3720 O   0  0  0  0  0  0  0  0  0  0  0  0
   10.8570    8.7530   10.4440 C   0  0  1  0  0  3  0  0  0  0  0  0
    9.6800    8.3680   11.3430 C   0  0  0  0  0  0  0  0  0  0  0  0
    9.5550    8.7960   12.6740 C   0  0  0  0  0  3  0  0  0  0  0  0
    8.4670    8.3960   13.4540 C   0  0  0  0  0  3  0  0  0  0  0  0
    7.4930    7.5550   12.9210 C   0  0  0  0  0  3  0  0  0  0  0  0
    7.6060    7.1080   11.6090 C   0  0  0  0  0  3  0  0  0  0  0  0
    8.6920    7.5080   10.8270 C   0  0  0  0  0  3  0  0  0  0  0  0
   11.3990   10.1750   10.5100 C   0  0  0  0  0  0  0  0  0  0  0  0
   10.6930   11.2810   10.0170 C   0  0  0  0  0  3  0  0  0  0  0  0
   11.2210   12.5640   10.1380 C   0  0  0  0  0  3  0  0  0  0  0  0
   12.4350   12.7140   10.7840 C   0  0  0  0  0  3  0  0  0  0  0  0
   13.1290   11.6890   11.3150 N   0  0  0  0  0  0  0  0  0  0  0  0
   12.5940   10.4530   11.1750 C   0  0  0  0  0  3  0  0  0  0  0  0
  1  6  1  0  0  0  0
  2  3  1  0  0  0  0
  2  1  2  0  0  0  0
  3  4  2  0  0  0  0
  4 26  1  0  0  0  0
  4  5  1  0  0  0  0
  6  5  2  0  0  0  0
  6  7  1  0  0  0  0
  8 13  1  0  0  0  0
  9  8  2  0  0  0  0
  9 10  1  0  0  0  0
 10 11  2  0  0  0  0
 11 12  1  0  0  0  0
 11 16  1  0  0  0  0
 12 14  1  0  0  0  0
 13 12  2  0  0  0  0
 14 15  2  0  0  0  0
 15  1  1  0  0  0  0
 16 17  1  0  0  0  0
 16 15  1  0  0  0  0
 17 18  1  0  0  0  0
 18 19  1  0  0  0  0
 20 19  1  0  0  0  0
 21 20  1  0  0  0  0
 22 21  1  0  0  0  0
 22 17  1  0  0  0  0
 23 24  2  0  0  0  0
 24  8  1  0  0  0  0
 24 25  1  0  0  0  0
 27 26  1  1  0  0  0
 27 34  1  0  0  0  0
 27 28  1  0  0  0  0
 28 29  1  0  0  0  0
 29 30  2  0  0  0  0
 31 30  1  0  0  0  0
 32 31  2  0  0  0  0
 33 28  2  0  0  0  0
 33 32  1  0  0  0  0
 34 39  1  0  0  0  0
 35 36  1  0  0  0  0
 35 34  2  0  0  0  0
 36 37  2  0  0  0  0
 37 38  1  0  0  0  0
 39 38  2  0  0  0  0
M  END
>  <minimizedAffinity>
-7.04875135

$$$$
