
 OpenBabel09122222393D

 39 44  0  0  1  0  0  0  0  0999 V2000
   10.5980    2.9550    1.7570 C   0  0  0  0  0  0  0  0  0  0  0  0
    9.5900    2.0600    2.1240 C   0  0  0  0  0  3  0  0  0  0  0  0
    9.3490    0.9200    1.3500 C   0  0  0  0  0  3  0  0  0  0  0  0
   10.0830    0.6810    0.1840 C   0  0  0  0  0  0  0  0  0  0  0  0
   11.0770    1.5790   -0.1910 C   0  0  0  0  0  3  0  0  0  0  0  0
   11.3290    2.7030    0.5940 C   0  0  0  0  0  0  0  0  0  0  0  0
   12.3330    3.5170    0.2330 F   0  0  0  0  0  0  0  0  0  0  0  0
   11.9510    7.1810    5.7750 C   0  0  0  0  0  0  0  0  0  0  0  0
   11.7770    8.0540    4.6890 C   0  0  0  0  0  3  0  0  0  0  0  0
   11.4300    7.5970    3.4110 C   0  0  0  0  0  3  0  0  0  0  0  0
   11.2560    6.2170    3.2430 C   0  0  0  0  0  0  0  0  0  0  0  0
   11.4250    5.3200    4.2950 C   0  0  0  0  0  0  0  0  0  0  0  0
   11.7710    5.7990    5.5690 C   0  0  0  0  0  3  0  0  0  0  0  0
   11.2160    4.0290    3.8750 N   0  0  0  0  0  0  0  0  0  0  0  0
   10.8950    4.1060    2.6000 C   0  0  0  0  0  0  0  0  0  0  0  0
   10.9280    5.4210    2.1640 N   0  0  0  0  0  0  0  0  0  0  0  0
   10.7030    5.8610    0.7900 C   0  0  0  0  0  3  0  0  0  0  0  0
    9.3420    6.5440    0.5880 C   0  0  0  0  0  2  0  0  0  0  0  0
    9.1310    6.9360   -0.8740 C   0  0  0  0  0  2  0  0  0  0  0  0
   10.2830    7.7880   -1.4030 C   0  0  0  0  0  2  0  0  0  0  0  0
   11.6300    7.0950   -1.2150 C   0  0  0  0  0  2  0  0  0  0  0  0
   11.8640    6.7070    0.2440 C   0  0  0  0  0  2  0  0  0  0  0  0
   11.5200    8.5420    7.6800 O   0  0  0  0  0  1  0  0  0  0  0  0
   12.3260    7.7190    7.1420 C   0  0  0  0  0  0  0  0  0  0  0  0
   13.4180    7.3110    7.6490 O   0  0  0  0  0  0  0  0  0  0  0  0
    9.8010   -0.4990   -0.4450 O   0  0  0  0  0  0  0  0  0  0  0  0
   10.5120   -1.7080   -0.0910 C   0  0  1  0  0  3  0  0  0  0  0  0
    9.5780   -2.8170    0.3970 C   0  0  0  0  0  0  0  0  0  0  0  0
    9.2210   -3.9250   -0.3880 C   0  0  0  0  0  3  0  0  0  0  0  0
    8.3480   -4.8980    0.1050 C   0  0  0  0  0  3  0  0  0  0  0  0
    7.8100   -4.7750    1.3830 C   0  0  0  0  0  3  0  0  0  0  0  0
    8.1390   -3.6770    2.1710 C   0  0  0  0  0  3  0  0  0  0  0  0
    9.0130   -2.7040    1.6810 C   0  0  0  0  0  3  0  0  0  0  0  0
   11.6660   -2.0710   -1.0170 C   0  0  0  0  0  0  0  0  0  0  0  0
   11.8650   -1.4550   -2.2600 C   0  0  0  0  0  3  0  0  0  0  0  0
   12.9600   -1.8000   -3.0490 C   0  0  0  0  0  3  0  0  0  0  0  0
   13.8530   -2.7350   -2.5570 C   0  0  0  0  0  3  0  0  0  0  0  0
   13.7300   -3.3220   -1.3500 N   0  0  0  0  0  0  0  0  0  0  0  0
   12.6510   -2.9720   -0.6090 C   0  0  0  0  0  3  0  0  0  0  0  0
  1  2  1  0  0  0  0
  1 15  1  0  0  0  0
  3  2  2  0  0  0  0
  4  3  1  0  0  0  0
  5  4  2  0  0  0  0
  5  6  1  0  0  0  0
  6  1  2  0  0  0  0
  7  6  1  0  0  0  0
  8 24  1  0  0  0  0
  9  8  2  0  0  0  0
 10  9  1  0  0  0  0
 11 10  2  0  0  0  0
 11 12  1  0  0  0  0
 12 13  2  0  0  0  0
 13  8  1  0  0  0  0
 14 12  1  0  0  0  0
 15 14  2  0  0  0  0
 16 15  1  0  0  0  0
 16 11  1  0  0  0  0
 17 16  1  0  0  0  0
 18 17  1  0  0  0  0
 19 18  1  0  0  0  0
 20 21  1  0  0  0  0
 20 19  1  0  0  0  0
 21 22  1  0  0  0  0
 22 17  1  0  0  0  0
 24 25  2  0  0  0  0
 24 23  1  0  0  0  0
 26  4  1  0  0  0  0
 27 26  1  6  0  0  0
 27 28  1  0  0  0  0
 28 33  1  0  0  0  0
 29 30  1  0  0  0  0
 29 28  2  0  0  0  0
 30 31  2  0  0  0  0
 31 32  1  0  0  0  0
 33 32  2  0  0  0  0
 34 39  1  0  0  0  0
 34 27  1  0  0  0  0
 35 34  2  0  0  0  0
 36 37  2  0  0  0  0
 36 35  1  0  0  0  0
 37 38  1  0  0  0  0
 38 39  2  0  0  0  0
M  END
>  <minimizedAffinity>
-7.4544282

$$$$
