
 OpenBabel09122222393D

 39 44  0  0  1  0  0  0  0  0999 V2000
   10.2330    2.6220    0.5490 C   0  0  0  0  0  0  0  0  0  0  0  0
    9.4740    1.6410    1.1940 C   0  0  0  0  0  3  0  0  0  0  0  0
    9.4790    0.3260    0.7190 C   0  0  0  0  0  3  0  0  0  0  0  0
   10.2100   -0.0180   -0.4230 C   0  0  0  0  0  0  0  0  0  0  0  0
   10.9540    0.9610   -1.0750 C   0  0  0  0  0  3  0  0  0  0  0  0
   10.9630    2.2660   -0.5860 C   0  0  0  0  0  0  0  0  0  0  0  0
   11.7370    3.1700   -1.2070 F   0  0  0  0  0  0  0  0  0  0  0  0
    9.9340    8.3660    2.2060 C   0  0  0  0  0  0  0  0  0  0  0  0
   10.7930    7.9540    3.2390 C   0  0  0  0  0  3  0  0  0  0  0  0
   11.2300    6.6300    3.3620 C   0  0  0  0  0  3  0  0  0  0  0  0
   10.7810    5.7080    2.4080 C   0  0  0  0  0  0  0  0  0  0  0  0
    9.9260    6.0780    1.3730 C   0  0  0  0  0  0  0  0  0  0  0  0
    9.4990    7.4120    1.2660 C   0  0  0  0  0  3  0  0  0  0  0  0
    9.6180    4.9970    0.5820 N   0  0  0  0  0  0  0  0  0  0  0  0
   10.2820    3.9760    1.0850 C   0  0  0  0  0  0  0  0  0  0  0  0
   10.9900    4.3580    2.2130 N   0  0  0  0  0  0  0  0  0  0  0  0
   11.7700    3.4620    3.0630 C   0  0  0  0  0  3  0  0  0  0  0  0
   13.2130    3.9430    3.2830 C   0  0  0  0  0  2  0  0  0  0  0  0
   14.0030    2.9470    4.1320 C   0  0  0  0  0  2  0  0  0  0  0  0
   13.2950    2.6390    5.4490 C   0  0  0  0  0  2  0  0  0  0  0  0
   11.8690    2.1460    5.2220 C   0  0  0  0  0  2  0  0  0  0  0  0
   11.0590    3.1350    4.3850 C   0  0  0  0  0  2  0  0  0  0  0  0
    8.7540   10.2530    3.0530 O   0  0  0  0  0  1  0  0  0  0  0  0
    9.4840    9.8110    2.1090 C   0  0  0  0  0  0  0  0  0  0  0  0
    9.8670   10.4740    1.0950 O   0  0  0  0  0  0  0  0  0  0  0  0
   10.1900   -1.3450   -0.7450 O   0  0  0  0  0  0  0  0  0  0  0  0
   10.5860   -2.3420    0.2250 C   0  0  1  0  0  3  0  0  0  0  0  0
    9.4800   -3.3600    0.5070 C   0  0  0  0  0  0  0  0  0  0  0  0
    9.0440   -4.3050   -0.4360 C   0  0  0  0  0  3  0  0  0  0  0  0
    8.0150   -5.1990   -0.1290 C   0  0  0  0  0  3  0  0  0  0  0  0
    7.3990   -5.1570    1.1190 C   0  0  0  0  0  3  0  0  0  0  0  0
    7.8060   -4.2190    2.0620 C   0  0  0  0  0  3  0  0  0  0  0  0
    8.8350   -3.3260    1.7580 C   0  0  0  0  0  3  0  0  0  0  0  0
   12.0230   -2.8320    0.0960 C   0  0  0  0  0  0  0  0  0  0  0  0
   12.7990   -2.6140   -1.0510 C   0  0  0  0  0  3  0  0  0  0  0  0
   14.1200   -3.0510   -1.1000 C   0  0  0  0  0  3  0  0  0  0  0  0
   14.6470   -3.6720    0.0190 C   0  0  0  0  0  3  0  0  0  0  0  0
   13.9560   -3.8640    1.1600 N   0  0  0  0  0  0  0  0  0  0  0  0
   12.6710   -3.4340    1.1750 C   0  0  0  0  0  3  0  0  0  0  0  0
  1 15  1  0  0  0  0
  1  2  1  0  0  0  0
  3  2  2  0  0  0  0
  4  3  1  0  0  0  0
  5  6  1  0  0  0  0
  5  4  2  0  0  0  0
  6  1  2  0  0  0  0
  7  6  1  0  0  0  0
  8  9  1  0  0  0  0
  9 10  2  0  0  0  0
 11 10  1  0  0  0  0
 12 11  2  0  0  0  0
 13 12  1  0  0  0  0
 13  8  2  0  0  0  0
 14 15  2  0  0  0  0
 14 12  1  0  0  0  0
 15 16  1  0  0  0  0
 16 11  1  0  0  0  0
 16 17  1  0  0  0  0
 17 18  1  0  0  0  0
 17 22  1  0  0  0  0
 18 19  1  0  0  0  0
 19 20  1  0  0  0  0
 21 20  1  0  0  0  0
 22 21  1  0  0  0  0
 24  8  1  0  0  0  0
 24 23  1  0  0  0  0
 25 24  2  0  0  0  0
 26  4  1  0  0  0  0
 27 26  1  6  0  0  0
 27 28  1  0  0  0  0
 28 33  1  0  0  0  0
 29 30  1  0  0  0  0
 29 28  2  0  0  0  0
 30 31  2  0  0  0  0
 31 32  1  0  0  0  0
 33 32  2  0  0  0  0
 34 27  1  0  0  0  0
 34 39  1  0  0  0  0
 35 34  2  0  0  0  0
 36 35  1  0  0  0  0
 36 37  2  0  0  0  0
 37 38  1  0  0  0  0
 38 39  2  0  0  0  0
M  END
>  <minimizedAffinity>
-8.8966217

$$$$
