
 OpenBabel09122222393D

 39 44  0  0  1  0  0  0  0  0999 V2000
    6.4210    2.7290   11.9590 C   0  0  0  0  0  0  0  0  0  0  0  0
    5.1660    2.5550   11.3670 C   0  0  0  0  0  3  0  0  0  0  0  0
    4.4390    1.3830   11.5970 C   0  0  0  0  0  3  0  0  0  0  0  0
    4.9700    0.3570   12.3860 C   0  0  0  0  0  0  0  0  0  0  0  0
    6.2250    0.5210   12.9630 C   0  0  0  0  0  3  0  0  0  0  0  0
    6.9380    1.7000   12.7490 C   0  0  0  0  0  0  0  0  0  0  0  0
    8.1190    1.8480   13.3680 F   0  0  0  0  0  0  0  0  0  0  0  0
    9.1910    8.0350   11.9140 C   0  0  0  0  0  0  0  0  0  0  0  0
    9.6310    7.6230   10.6450 C   0  0  0  0  0  3  0  0  0  0  0  0
    9.2730    6.3850   10.0960 C   0  0  0  0  0  3  0  0  0  0  0  0
    8.4450    5.5540   10.8610 C   0  0  0  0  0  0  0  0  0  0  0  0
    7.9920    5.9250   12.1240 C   0  0  0  0  0  0  0  0  0  0  0  0
    8.3620    7.1720   12.6570 C   0  0  0  0  0  3  0  0  0  0  0  0
    7.2120    4.9380   12.6760 N   0  0  0  0  0  0  0  0  0  0  0  0
    7.1480    3.9780   11.7760 C   0  0  0  0  0  0  0  0  0  0  0  0
    7.9020    4.3000   10.6590 N   0  0  0  0  0  0  0  0  0  0  0  0
    8.1170    3.4300    9.5060 C   0  0  0  0  0  3  0  0  0  0  0  0
    7.7910    4.1100    8.1670 C   0  0  0  0  0  2  0  0  0  0  0  0
    7.9790    3.1450    6.9970 C   0  0  0  0  0  2  0  0  0  0  0  0
    9.3720    2.5190    6.9970 C   0  0  0  0  0  2  0  0  0  0  0  0
    9.6810    1.8310    8.3240 C   0  0  0  0  0  2  0  0  0  0  0  0
    9.5120    2.7850    9.5050 C   0  0  0  0  0  2  0  0  0  0  0  0
   10.5870    9.9640   11.9090 O   0  0  0  0  0  0  0  0  0  0  0  0
    9.6030    9.3830   12.4700 C   0  0  0  0  0  0  0  0  0  0  0  0
    8.9400    9.8350   13.4560 O   0  0  0  0  0  1  0  0  0  0  0  0
    4.1350   -0.7050   12.5900 O   0  0  0  0  0  0  0  0  0  0  0  0
    3.7900   -1.5890   11.4990 C   0  0  1  0  0  3  0  0  0  0  0  0
    5.0200   -2.1940   10.8210 C   0  0  0  0  0  0  0  0  0  0  0  0
    5.8280   -3.1720   11.4220 C   0  0  0  0  0  3  0  0  0  0  0  0
    6.9520   -3.6750   10.7620 C   0  0  0  0  0  3  0  0  0  0  0  0
    7.2920   -3.2030    9.4970 C   0  0  0  0  0  3  0  0  0  0  0  0
    6.5130   -2.2230    8.8900 C   0  0  0  0  0  3  0  0  0  0  0  0
    5.3880   -1.7200    9.5470 C   0  0  0  0  0  3  0  0  0  0  0  0
    2.5750   -2.4740   11.7460 C   0  0  0  0  0  0  0  0  0  0  0  0
    2.0700   -3.3570   10.7810 C   0  0  0  0  0  3  0  0  0  0  0  0
    0.9790   -4.1710   11.0750 C   0  0  0  0  0  3  0  0  0  0  0  0
    0.4360   -4.1050   12.3450 C   0  0  0  0  0  3  0  0  0  0  0  0
    0.9130   -3.3060   13.3200 N   0  0  0  0  0  0  0  0  0  0  0  0
    1.9700   -2.5210   13.0020 C   0  0  0  0  0  3  0  0  0  0  0  0
  1  6  1  0  0  0  0
  2  3  1  0  0  0  0
  2  1  2  0  0  0  0
  3  4  2  0  0  0  0
  4 26  1  0  0  0  0
  4  5  1  0  0  0  0
  6  5  2  0  0  0  0
  6  7  1  0  0  0  0
  8 24  1  0  0  0  0
  8 13  1  0  0  0  0
  9  8  2  0  0  0  0
 10  9  1  0  0  0  0
 10 11  2  0  0  0  0
 11 12  1  0  0  0  0
 12 13  2  0  0  0  0
 12 14  1  0  0  0  0
 15  1  1  0  0  0  0
 15 14  2  0  0  0  0
 16 11  1  0  0  0  0
 16 15  1  0  0  0  0
 17 16  1  0  0  0  0
 18 17  1  0  0  0  0
 19 20  1  0  0  0  0
 19 18  1  0  0  0  0
 20 21  1  0  0  0  0
 21 22  1  0  0  0  0
 22 17  1  0  0  0  0
 23 24  2  0  0  0  0
 24 25  1  0  0  0  0
 27 34  1  0  0  0  0
 27 26  1  1  0  0  0
 28 29  1  0  0  0  0
 28 27  1  0  0  0  0
 30 29  2  0  0  0  0
 31 30  1  0  0  0  0
 32 31  2  0  0  0  0
 32 33  1  0  0  0  0
 33 28  2  0  0  0  0
 34 39  1  0  0  0  0
 35 36  1  0  0  0  0
 35 34  2  0  0  0  0
 36 37  2  0  0  0  0
 37 38  1  0  0  0  0
 39 38  2  0  0  0  0
M  END
>  <minimizedAffinity>
-7.20644712

$$$$
