
 OpenBabel09122222393D

 39 44  0  0  1  0  0  0  0  0999 V2000
    6.3320    2.4000   11.9160 C   0  0  0  0  0  0  0  0  0  0  0  0
    4.9460    2.4010   11.7320 C   0  0  0  0  0  3  0  0  0  0  0  0
    4.2220    1.2110   11.8580 C   0  0  0  0  0  3  0  0  0  0  0  0
    4.8740    0.0040   12.1300 C   0  0  0  0  0  0  0  0  0  0  0  0
    6.2550   -0.0010   12.2980 C   0  0  0  0  0  3  0  0  0  0  0  0
    6.9720    1.1900   12.1930 C   0  0  0  0  0  0  0  0  0  0  0  0
    8.2940    1.1570   12.4180 F   0  0  0  0  0  0  0  0  0  0  0  0
    9.2240    7.6190   12.3940 C   0  0  0  0  0  0  0  0  0  0  0  0
    9.5800    7.3700   11.0580 C   0  0  0  0  0  3  0  0  0  0  0  0
    9.1600    6.2210   10.3750 C   0  0  0  0  0  3  0  0  0  0  0  0
    8.3570    5.3110   11.0740 C   0  0  0  0  0  0  0  0  0  0  0  0
    7.9880    5.5210   12.4000 C   0  0  0  0  0  0  0  0  0  0  0  0
    8.4190    6.6800   13.0670 C   0  0  0  0  0  3  0  0  0  0  0  0
    7.2180    4.4830   12.8650 N   0  0  0  0  0  0  0  0  0  0  0  0
    7.0780    3.6510   11.8540 C   0  0  0  0  0  0  0  0  0  0  0  0
    7.7740    4.1040   10.7450 N   0  0  0  0  0  0  0  0  0  0  0  0
    7.9000    3.3900    9.4770 C   0  0  0  0  0  3  0  0  0  0  0  0
    7.7410    4.3020    8.2510 C   0  0  0  0  0  2  0  0  0  0  0  0
    7.8260    3.5010    6.9520 C   0  0  0  0  0  2  0  0  0  0  0  0
    9.1030    2.6670    6.8830 C   0  0  0  0  0  2  0  0  0  0  0  0
    9.2460    1.7510    8.0960 C   0  0  0  0  0  2  0  0  0  0  0  0
    9.1760    2.5360    9.4050 C   0  0  0  0  0  2  0  0  0  0  0  0
    8.8110    9.7100   13.4560 O   0  0  0  0  0  1  0  0  0  0  0  0
    9.7010    8.8760   13.0950 C   0  0  0  0  0  0  0  0  0  0  0  0
   10.9540    9.0070   13.2690 O   0  0  0  0  0  0  0  0  0  0  0  0
    4.0500   -1.0730   12.2970 O   0  0  0  0  0  0  0  0  0  0  0  0
    3.1300   -1.4630   11.2520 C   0  0  1  0  0  3  0  0  0  0  0  0
    3.8040   -1.5600    9.8820 C   0  0  0  0  0  0  0  0  0  0  0  0
    4.9350   -2.3540    9.6350 C   0  0  0  0  0  3  0  0  0  0  0  0
    5.5200   -2.3890    8.3660 C   0  0  0  0  0  3  0  0  0  0  0  0
    4.9920   -1.6250    7.3290 C   0  0  0  0  0  3  0  0  0  0  0  0
    3.8800   -0.8210    7.5570 C   0  0  0  0  0  3  0  0  0  0  0  0
    3.2930   -0.7850    8.8230 C   0  0  0  0  0  3  0  0  0  0  0  0
    2.1140   -2.5260   11.6500 C   0  0  0  0  0  0  0  0  0  0  0  0
    1.6270   -3.4850   10.7520 C   0  0  0  0  0  3  0  0  0  0  0  0
    0.7280   -4.4580   11.1810 C   0  0  0  0  0  3  0  0  0  0  0  0
    0.3600   -4.4690   12.5140 C   0  0  0  0  0  3  0  0  0  0  0  0
    0.8360   -3.5970   13.4260 N   0  0  0  0  0  0  0  0  0  0  0  0
    1.7030   -2.6580   12.9770 C   0  0  0  0  0  3  0  0  0  0  0  0
  1  6  1  0  0  0  0
  2  3  1  0  0  0  0
  2  1  2  0  0  0  0
  3  4  2  0  0  0  0
  4 26  1  0  0  0  0
  4  5  1  0  0  0  0
  6  5  2  0  0  0  0
  6  7  1  0  0  0  0
  8 13  1  0  0  0  0
  8 24  1  0  0  0  0
  9  8  2  0  0  0  0
 10  9  1  0  0  0  0
 10 11  2  0  0  0  0
 11 12  1  0  0  0  0
 12 14  1  0  0  0  0
 12 13  2  0  0  0  0
 15  1  1  0  0  0  0
 15 14  2  0  0  0  0
 16 11  1  0  0  0  0
 16 15  1  0  0  0  0
 17 16  1  0  0  0  0
 18 17  1  0  0  0  0
 19 18  1  0  0  0  0
 20 19  1  0  0  0  0
 20 21  1  0  0  0  0
 21 22  1  0  0  0  0
 22 17  1  0  0  0  0
 24 25  2  0  0  0  0
 24 23  1  0  0  0  0
 27 34  1  0  0  0  0
 27 26  1  1  0  0  0
 28 27  1  0  0  0  0
 29 28  1  0  0  0  0
 30 29  2  0  0  0  0
 31 32  2  0  0  0  0
 31 30  1  0  0  0  0
 32 33  1  0  0  0  0
 33 28  2  0  0  0  0
 34 39  1  0  0  0  0
 35 36  1  0  0  0  0
 35 34  2  0  0  0  0
 36 37  2  0  0  0  0
 37 38  1  0  0  0  0
 39 38  2  0  0  0  0
M  END
>  <minimizedAffinity>
-7.63732576

$$$$
