44194974
  -OEChem-09032203373D

 76 81  0     1  0  0  0  0  0999 V2000
   -1.9786    3.0326    1.3505 S   0  0  0  0  0  0  0  0  0  0  0  0
    0.9863   -1.3288    2.0848 F   0  0  0  0  0  0  0  0  0  0  0  0
   -0.7589    3.6151    1.8840 O   0  0  0  0  0  0  0  0  0  0  0  0
   -2.9976    2.5455    2.2639 O   0  0  0  0  0  0  0  0  0  0  0  0
   -0.8656   -0.6480   -4.1885 O   0  0  0  0  0  0  0  0  0  0  0  0
   -1.9887   -1.1143    2.9063 O   0  0  0  0  0  0  0  0  0  0  0  0
    4.8547    0.4651   -0.0095 O   0  0  0  0  0  0  0  0  0  0  0  0
   -1.5554    0.7595   -1.9519 N   0  0  0  0  0  0  0  0  0  0  0  0
   -1.4454   -0.6703    0.6689 N   0  0  0  0  0  0  0  0  0  0  0  0
   -4.0973   -1.5307    0.2422 N   0  0  0  0  0  0  0  0  0  0  0  0
   -3.5676    3.7353   -0.7950 C   0  0  0  0  0  0  0  0  0  0  0  0
   -2.7282    4.2828    0.3533 C   0  0  0  0  0  0  0  0  0  0  0  0
   -2.6609    2.8764   -1.6908 C   0  0  0  0  0  0  0  0  0  0  0  0
   -1.5371    1.7251    0.2734 C   0  0  0  0  0  0  0  0  0  0  0  0
   -1.8931    1.7389   -1.0298 C   0  0  0  0  0  0  0  0  0  0  0  0
   -0.7456    0.6089    0.9248 C   0  0  2  0  0  0  0  0  0  0  0  0
   -4.0971    4.9268   -1.6196 C   0  0  0  0  0  0  0  0  0  0  0  0
   -4.7853    2.9292   -0.3051 C   0  0  0  0  0  0  0  0  0  0  0  0
    0.7618    0.5669    0.6734 C   0  0  0  0  0  0  0  0  0  0  0  0
   -1.2048   -0.5968   -1.8021 C   0  0  0  0  0  0  0  0  0  0  0  0
   -1.2064   -1.3107   -0.5898 C   0  0  0  0  0  0  0  0  0  0  0  0
   -2.2170   -1.2420    1.7029 C   0  0  0  0  0  0  0  0  0  0  0  0
   -0.8799   -1.2987   -2.9845 C   0  0  0  0  0  0  0  0  0  0  0  0
    1.5457   -0.4146    1.2798 C   0  0  0  0  0  0  0  0  0  0  0  0
    1.3533    1.5139   -0.1628 C   0  0  0  0  0  0  0  0  0  0  0  0
   -0.9012   -2.6881   -0.5957 C   0  0  0  0  0  0  0  0  0  0  0  0
   -0.5815   -2.6605   -2.9760 C   0  0  0  0  0  0  0  0  0  0  0  0
   -0.5957   -3.3574   -1.7784 C   0  0  0  0  0  0  0  0  0  0  0  0
   -3.4589   -1.9658    1.3515 C   0  0  0  0  0  0  0  0  0  0  0  0
    2.9211   -0.4492    1.0500 C   0  0  0  0  0  0  0  0  0  0  0  0
    2.7286    1.4794   -0.3926 C   0  0  0  0  0  0  0  0  0  0  0  0
    3.5125    0.4977    0.2138 C   0  0  0  0  0  0  0  0  0  0  0  0
   -3.9015   -3.0162    2.1393 C   0  0  0  0  0  0  0  0  0  0  0  0
   -5.2340   -2.1821   -0.0909 C   0  0  0  0  0  0  0  0  0  0  0  0
   -5.0746   -3.6617    1.7643 C   0  0  0  0  0  0  0  0  0  0  0  0
   -5.7597   -3.2428    0.6291 C   0  0  0  0  0  0  0  0  0  0  0  0
    5.5964   -0.5652    0.6419 C   0  0  0  0  0  0  0  0  0  0  0  0
   -5.9431   -1.7060   -1.3149 C   0  0  0  0  0  0  0  0  0  0  0  0
    7.0494   -0.4146    0.2991 C   0  0  0  0  0  0  0  0  0  0  0  0
    7.5721   -1.0615   -0.8207 C   0  0  0  0  0  0  0  0  0  0  0  0
    7.8773    0.3721    1.0998 C   0  0  0  0  0  0  0  0  0  0  0  0
    8.9229   -0.9218   -1.1398 C   0  0  0  0  0  0  0  0  0  0  0  0
    9.2279    0.5119    0.7807 C   0  0  0  0  0  0  0  0  0  0  0  0
    9.7507   -0.1351   -0.3390 C   0  0  0  0  0  0  0  0  0  0  0  0
   -1.9102    4.9027   -0.0349 H   0  0  0  0  0  0  0  0  0  0  0  0
   -3.3235    4.9128    1.0241 H   0  0  0  0  0  0  0  0  0  0  0  0
   -1.9207    3.5159   -2.1930 H   0  0  0  0  0  0  0  0  0  0  0  0
   -3.2892    2.4606   -2.4924 H   0  0  0  0  0  0  0  0  0  0  0  0
   -0.8147    0.7760    2.0089 H   0  0  0  0  0  0  0  0  0  0  0  0
   -4.7456    5.5691   -1.0132 H   0  0  0  0  0  0  0  0  0  0  0  0
   -4.6784    4.5846   -2.4834 H   0  0  0  0  0  0  0  0  0  0  0  0
   -3.2762    5.5466   -1.9981 H   0  0  0  0  0  0  0  0  0  0  0  0
   -5.3876    3.5167    0.3969 H   0  0  0  0  0  0  0  0  0  0  0  0
   -4.5049    1.9971    0.1936 H   0  0  0  0  0  0  0  0  0  0  0  0
   -5.4334    2.6527   -1.1451 H   0  0  0  0  0  0  0  0  0  0  0  0
   -1.6343    1.0548   -2.9215 H   0  0  0  0  0  0  0  0  0  0  0  0
    0.7911    2.3057   -0.6455 H   0  0  0  0  0  0  0  0  0  0  0  0
   -0.8748   -3.2513    0.3350 H   0  0  0  0  0  0  0  0  0  0  0  0
   -0.3382   -3.1858   -3.8953 H   0  0  0  0  0  0  0  0  0  0  0  0
   -0.3598   -4.4171   -1.7590 H   0  0  0  0  0  0  0  0  0  0  0  0
    3.4654   -1.2411    1.5521 H   0  0  0  0  0  0  0  0  0  0  0  0
    3.1849    2.2214   -1.0421 H   0  0  0  0  0  0  0  0  0  0  0  0
   -0.6267   -1.2775   -4.8903 H   0  0  0  0  0  0  0  0  0  0  0  0
   -3.3610   -3.3437    3.0210 H   0  0  0  0  0  0  0  0  0  0  0  0
   -5.4535   -4.4904    2.3547 H   0  0  0  0  0  0  0  0  0  0  0  0
   -6.6757   -3.7387    0.3263 H   0  0  0  0  0  0  0  0  0  0  0  0
    5.2586   -1.5564    0.3113 H   0  0  0  0  0  0  0  0  0  0  0  0
    5.4919   -0.4933    1.7327 H   0  0  0  0  0  0  0  0  0  0  0  0
   -6.9545   -1.3717   -1.0637 H   0  0  0  0  0  0  0  0  0  0  0  0
   -5.4131   -0.8638   -1.7726 H   0  0  0  0  0  0  0  0  0  0  0  0
   -6.0042   -2.5092   -2.0561 H   0  0  0  0  0  0  0  0  0  0  0  0
    6.9370   -1.6754   -1.4539 H   0  0  0  0  0  0  0  0  0  0  0  0
    7.4818    0.8833    1.9735 H   0  0  0  0  0  0  0  0  0  0  0  0
    9.3299   -1.4249   -2.0119 H   0  0  0  0  0  0  0  0  0  0  0  0
    9.8725    1.1251    1.4037 H   0  0  0  0  0  0  0  0  0  0  0  0
   10.8024   -0.0259   -0.5874 H   0  0  0  0  0  0  0  0  0  0  0  0
  1  3  2  0  0  0  0
  1  4  2  0  0  0  0
  1 12  1  0  0  0  0
  1 14  1  0  0  0  0
  2 24  1  0  0  0  0
  5 23  1  0  0  0  0
  5 63  1  0  0  0  0
  6 22  2  0  0  0  0
  7 32  1  0  0  0  0
  7 37  1  0  0  0  0
  8 15  1  0  0  0  0
  8 20  1  0  0  0  0
  8 56  1  0  0  0  0
  9 16  1  0  0  0  0
  9 21  1  0  0  0  0
  9 22  1  0  0  0  0
 10 29  1  0  0  0  0
 10 34  2  0  0  0  0
 11 12  1  0  0  0  0
 11 13  1  0  0  0  0
 11 17  1  0  0  0  0
 11 18  1  0  0  0  0
 12 45  1  0  0  0  0
 12 46  1  0  0  0  0
 13 15  1  0  0  0  0
 13 47  1  0  0  0  0
 13 48  1  0  0  0  0
 14 15  2  0  0  0  0
 14 16  1  0  0  0  0
 16 19  1  0  0  0  0
 16 49  1  0  0  0  0
 17 50  1  0  0  0  0
 17 51  1  0  0  0  0
 17 52  1  0  0  0  0
 18 53  1  0  0  0  0
 18 54  1  0  0  0  0
 18 55  1  0  0  0  0
 19 24  2  0  0  0  0
 19 25  1  0  0  0  0
 20 21  2  0  0  0  0
 20 23  1  0  0  0  0
 21 26  1  0  0  0  0
 22 29  1  0  0  0  0
 23 27  2  0  0  0  0
 24 30  1  0  0  0  0
 25 31  2  0  0  0  0
 25 57  1  0  0  0  0
 26 28  2  0  0  0  0
 26 58  1  0  0  0  0
 27 28  1  0  0  0  0
 27 59  1  0  0  0  0
 28 60  1  0  0  0  0
 29 33  2  0  0  0  0
 30 32  2  0  0  0  0
 30 61  1  0  0  0  0
 31 32  1  0  0  0  0
 31 62  1  0  0  0  0
 33 35  1  0  0  0  0
 33 64  1  0  0  0  0
 34 36  1  0  0  0  0
 34 38  1  0  0  0  0
 35 36  2  0  0  0  0
 35 65  1  0  0  0  0
 36 66  1  0  0  0  0
 37 39  1  0  0  0  0
 37 67  1  0  0  0  0
 37 68  1  0  0  0  0
 38 69  1  0  0  0  0
 38 70  1  0  0  0  0
 38 71  1  0  0  0  0
 39 40  2  0  0  0  0
 39 41  1  0  0  0  0
 40 42  1  0  0  0  0
 40 72  1  0  0  0  0
 41 43  2  0  0  0  0
 41 73  1  0  0  0  0
 42 44  2  0  0  0  0
 42 74  1  0  0  0  0
 43 44  1  0  0  0  0
 43 75  1  0  0  0  0
 44 76  1  0  0  0  0
M  END
> <PUBCHEM_COMPOUND_CID>
44194974

> <PUBCHEM_CONFORMER_RMSD>
1

> <PUBCHEM_CONFORMER_DIVERSEORDER>
1
155
134
132
28
110
33
135
52
131
76
115
125
30
67
119
53
116
140
73
109
16
85
88
112
161
75
79
78
104
84
69
64
129
44
156
159
105
15
86
46
43
145
136
97
82
90
71
144
120
74
6
2
31
150
113
137
160
80
148
102
39
14
27
89
13
96
55
41
12
154
98
21
147
38
121
127
128
146
130
34
123
35
29
114
56
142
58
19
157
117
47
152
66
153
68
24
63
101
138
139
51
54
72
95
151
93
81
18
107
22
87
45
25
62
57
108
4
99
5
36
133
9
70
106
100
23
60
103
17
20
118
50
143
141
124
122
158
37
149
61
40
91
7
32
59
48
26
111
65
11
10
126
42
8
94
49
83
77
92
3

> <PUBCHEM_MMFF94_PARTIAL_CHARGES>
57
1 1.21
10 -0.62
12 0.11
13 0.14
14 -0.16
15 -0.04
16 0.58
19 -0.14
2 -0.19
20 0.1
21 0.12
22 0.54
23 0.08
24 0.19
25 -0.15
26 -0.15
27 -0.15
28 -0.15
29 0.4
3 -0.65
30 -0.15
31 -0.15
32 0.08
33 -0.15
34 0.17
35 -0.15
36 -0.15
37 0.42
38 0.14
39 -0.14
4 -0.65
40 -0.15
41 -0.15
42 -0.15
43 -0.15
44 -0.15
5 -0.53
56 0.4
57 0.15
58 0.15
59 0.15
6 -0.57
60 0.15
61 0.15
62 0.15
63 0.45
64 0.15
65 0.15
66 0.15
7 -0.36
72 0.15
73 0.15
74 0.15
75 0.15
76 0.15
8 -0.6
9 -0.48

> <PUBCHEM_EFFECTIVE_ROTOR_COUNT>
7.2

> <PUBCHEM_PHARMACOPHORE_FEATURES>
15
1 10 acceptor
1 3 acceptor
1 4 acceptor
1 5 donor
1 6 acceptor
1 7 acceptor
1 8 cation
1 8 donor
3 11 17 18 hydrophobe
6 1 11 12 13 14 15 rings
6 10 29 33 34 35 36 rings
6 19 24 25 30 31 32 rings
6 20 21 23 26 27 28 rings
6 39 40 41 42 43 44 rings
7 8 9 14 15 16 20 21 rings

> <PUBCHEM_HEAVY_ATOM_COUNT>
44

> <PUBCHEM_ATOM_DEF_STEREO_COUNT>
1

> <PUBCHEM_ATOM_UDEF_STEREO_COUNT>
0

> <PUBCHEM_BOND_DEF_STEREO_COUNT>
0

> <PUBCHEM_BOND_UDEF_STEREO_COUNT>
0

> <PUBCHEM_ISOTOPIC_ATOM_COUNT>
0

> <PUBCHEM_COMPONENT_COUNT>
1

> <PUBCHEM_CACTVS_TAUTO_COUNT>
6

> <PUBCHEM_CONFORMER_ID>
02A25C9E00000001

> <PUBCHEM_MMFF94_ENERGY>
162.3572

> <PUBCHEM_FEATURE_SELFOVERLAP>
76.16

> <PUBCHEM_SHAPE_FINGERPRINT>
10190206 1 18186791462172627245
10290309 65 17917439670959403102
10369192 42 18268425724784395797
12082328 90 18261107470891262518
12107698 1 18335421305031944076
12156800 1 18117587105066686349
14068700 675 17896042198785593535
14118638 360 18186798068281254538
14400156 147 16377235235405931498
14856354 85 17822019683776049996
15183329 4 16008749118352707214
15276724 80 18128815429605823460
15439362 3 17693941795587218676
15876981 60 18041289837015360085
15975801 100 11743571934065541619
21927370 108 18041856111394658129
3493558 16 17386848490650353789
3552219 110 17458917044690361991
44802255 64 18202560666512528838
497634 4 17603863408255153814
9896288 288 18411139099926716986

> <PUBCHEM_SHAPE_MULTIPOLES>
857.79
19.17
5.24
2.72
67.43
4.09
-1.54
-5.48
1.46
-13.06
-0.19
-2.48
-1.26
2.5

> <PUBCHEM_SHAPE_SELFOVERLAP>
1878.489

> <PUBCHEM_SHAPE_VOLUME>
468.5

> <PUBCHEM_COORDINATE_TYPE>
2
5
10

$$$$
