
 OpenBabel09092210413D

 44 49  0  0  0  0  0  0  0  0999 V2000
    6.5260   -3.9860    0.7030 C   0  0  0  0  0  0  0  0  0  0  0  0
    6.8360   -5.2670    0.2530 C   0  0  0  0  0  3  0  0  0  0  0  0
    6.1550   -5.8070   -0.8430 C   0  0  0  0  0  3  0  0  0  0  0  0
    5.1590   -5.0800   -1.5130 C   0  0  0  0  0  0  0  0  0  0  0  0
    4.8110   -3.7970   -1.0300 C   0  0  0  0  0  0  0  0  0  0  0  0
    5.5200   -3.2610    0.0600 C   0  0  0  0  0  3  0  0  0  0  0  0
    3.7200   -2.9680   -1.5860 C   0  0  0  0  0  3  0  0  0  0  0  0
    2.5530   -3.4980   -1.9960 C   0  0  0  0  0  0  0  0  0  0  0  0
    2.2230   -4.9570   -1.9570 C   0  0  0  0  0  2  0  0  0  0  0  0
    3.1290   -5.6750   -2.8540 N   0  0  0  0  0  0  0  0  0  0  0  0
    4.5040   -5.6870   -2.6910 C   0  0  0  0  0  0  0  0  0  0  0  0
    5.0510   -6.2480   -3.8480 C   0  0  0  0  0  0  0  0  0  0  0  0
    3.9520   -6.5870   -4.7140 C   0  0  0  0  0  0  0  0  0  0  0  0
    3.8600   -7.1230   -6.0200 C   0  0  0  0  0  3  0  0  0  0  0  0
    2.6210   -7.1940   -6.6670 C   0  0  0  0  0  3  0  0  0  0  0  0
    1.4680   -6.7800   -6.0040 C   0  0  0  0  0  0  0  0  0  0  0  0
    1.5150   -6.3310   -4.6800 C   0  0  0  0  0  3  0  0  0  0  0  0
    2.7730   -6.2160   -4.0680 C   0  0  0  0  0  0  0  0  0  0  0  0
    0.1700   -6.6530   -6.7000 C   0  0  0  0  0  0  0  0  0  0  0  0
   -0.8690   -6.9850   -6.1530 O   0  0  0  0  0  0  0  0  0  0  0  0
    0.2750   -6.0240   -7.9450 N   0  0  0  0  0  0  0  0  0  0  0  0
   -0.9760   -5.4420   -8.8430 S   0  0  0  0  0  0  0  0  0  0  0  0
   -0.3680   -4.9740  -10.0700 O   0  0  0  0  0  0  0  0  0  0  0  0
   -2.0510   -6.3990   -8.8620 O   0  0  0  0  0  0  0  0  0  0  0  0
   -1.4300   -4.0950   -7.9710 N   0  0  0  0  0  0  0  0  0  0  0  0
   -2.1120   -4.2530   -6.6830 C   0  0  0  0  0  1  0  0  0  0  0  0
   -0.8150   -2.7760   -8.2180 C   0  0  0  0  0  2  0  0  0  0  0  0
    0.6890   -2.6890   -7.9440 C   0  0  0  0  0  2  0  0  0  0  0  0
    0.9790   -2.8590   -6.5490 O   0  0  0  0  0  0  0  0  0  0  0  0
    2.1830   -2.1750   -6.1770 C   0  0  0  0  0  2  0  0  0  0  0  0
    2.5460   -2.4210   -4.7030 C   0  0  0  0  0  2  0  0  0  0  0  0
    1.5570   -2.0150   -3.6870 N   0  0  0  0  0  0  0  0  0  0  0  0
    0.6370   -0.9340   -4.0070 C   0  0  0  0  0  1  0  0  0  0  0  0
    1.4660   -2.5890   -2.4270 C   0  0  0  0  0  0  0  0  0  0  0  0
    0.5490   -2.3750   -1.6370 O   0  0  0  0  0  0  0  0  0  0  0  0
    1.1620   -5.6400   -8.2410 H   0  0  0  0  0  0  0  0  0  0  0  0
    6.5290   -6.3710   -4.1730 C   0  0  0  0  0  3  0  0  0  0  0  0
    6.9070   -7.7720   -4.6760 C   0  0  0  0  0  2  0  0  0  0  0  0
    8.4030   -7.8780   -4.9680 C   0  0  0  0  0  2  0  0  0  0  0  0
    8.8680   -6.7890   -5.9320 C   0  0  0  0  0  2  0  0  0  0  0  0
    8.5060   -5.3960   -5.4240 C   0  0  0  0  0  2  0  0  0  0  0  0
    7.0100   -5.2740   -5.1400 C   0  0  0  0  0  2  0  0  0  0  0  0
    7.5400   -2.0000    1.5290 C   0  0  0  0  0  1  0  0  0  0  0  0
    7.1150   -3.3390    1.7540 O   0  0  0  0  0  0  0  0  0  0  0  0
  1 44  1  0  0  0  0
  2  1  1  0  0  0  0
  3  2  2  0  0  0  0
  4  5  2  0  0  0  0
  4  3  1  0  0  0  0
  5  6  1  0  0  0  0
  6  1  2  0  0  0  0
  7  5  1  0  0  0  0
  8  9  1  0  0  0  0
  8  7  2  0  0  0  0
 10 11  1  0  0  0  0
 10  9  1  0  0  0  0
 11  4  1  0  0  0  0
 12 11  2  0  0  0  0
 13 18  1  0  0  0  0
 13 12  1  0  0  0  0
 14 13  2  0  0  0  0
 15 14  1  0  0  0  0
 15 16  2  0  0  0  0
 16 17  1  0  0  0  0
 17 18  2  0  0  0  0
 18 10  1  0  0  0  0
 19 20  2  0  0  0  0
 19 16  1  0  0  0  0
 21 19  1  0  0  0  0
 22 25  1  0  0  0  0
 22 21  1  0  0  0  0
 23 22  2  0  0  0  0
 24 22  2  0  0  0  0
 25 26  1  0  0  0  0
 27 25  1  0  0  0  0
 27 28  1  0  0  0  0
 28 29  1  0  0  0  0
 29 30  1  0  0  0  0
 30 31  1  0  0  0  0
 31 32  1  0  0  0  0
 32 34  1  0  0  0  0
 33 32  1  0  0  0  0
 34  8  1  0  0  0  0
 34 35  2  0  0  0  0
 36 21  1  0  0  0  0
 37 12  1  0  0  0  0
 38 37  1  0  0  0  0
 39 38  1  0  0  0  0
 40 41  1  0  0  0  0
 40 39  1  0  0  0  0
 41 42  1  0  0  0  0
 42 37  1  0  0  0  0
 43 44  1  0  0  0  0
M  END
>  <minimizedAffinity>
-4.97045422

$$$$
