
 OpenBabel09092210413D

 44 49  0  0  0  0  0  0  0  0999 V2000
    2.5650   -4.3320   -9.6130 C   0  0  0  0  0  0  0  0  0  0  0  0
    3.9470   -4.3800   -9.4540 C   0  0  0  0  0  3  0  0  0  0  0  0
    4.5020   -4.4250   -8.1710 C   0  0  0  0  0  3  0  0  0  0  0  0
    3.6910   -4.4300   -7.0250 C   0  0  0  0  0  0  0  0  0  0  0  0
    2.2880   -4.3370   -7.1830 C   0  0  0  0  0  0  0  0  0  0  0  0
    1.7470   -4.3120   -8.4810 C   0  0  0  0  0  3  0  0  0  0  0  0
    1.3310   -4.2390   -6.0610 C   0  0  0  0  0  3  0  0  0  0  0  0
    1.5910   -3.5180   -4.9550 C   0  0  0  0  0  0  0  0  0  0  0  0
    2.8550   -2.7540   -4.7190 C   0  0  0  0  0  2  0  0  0  0  0  0
    3.9750   -3.6930   -4.6490 N   0  0  0  0  0  0  0  0  0  0  0  0
    4.3340   -4.5230   -5.6980 C   0  0  0  0  0  0  0  0  0  0  0  0
    5.2630   -5.4390   -5.1980 C   0  0  0  0  0  0  0  0  0  0  0  0
    5.4640   -5.1230   -3.8080 C   0  0  0  0  0  0  0  0  0  0  0  0
    6.2250   -5.7060   -2.7680 C   0  0  0  0  0  3  0  0  0  0  0  0
    6.0870   -5.2490   -1.4520 C   0  0  0  0  0  3  0  0  0  0  0  0
    5.2340   -4.1840   -1.1740 C   0  0  0  0  0  0  0  0  0  0  0  0
    4.5380   -3.5280   -2.1940 C   0  0  0  0  0  3  0  0  0  0  0  0
    4.6470   -4.0350   -3.4980 C   0  0  0  0  0  0  0  0  0  0  0  0
    4.9050   -3.7880    0.2120 C   0  0  0  0  0  0  0  0  0  0  0  0
    4.8070   -2.6120    0.5200 O   0  0  0  0  0  0  0  0  0  0  0  0
    4.6190   -4.8780    1.0400 N   0  0  0  0  0  0  0  0  0  0  0  0
    3.9230   -4.8040    2.5300 S   0  0  0  0  0  0  0  0  0  0  0  0
    3.9230   -6.1690    3.0100 O   0  0  0  0  0  0  0  0  0  0  0  0
    4.5230   -3.7440    3.2980 O   0  0  0  0  0  0  0  0  0  0  0  0
    2.3460   -4.4110    2.1550 N   0  0  0  0  0  0  0  0  0  0  0  0
    2.0220   -3.0660    1.6710 C   0  0  0  0  0  1  0  0  0  0  0  0
    1.3370   -5.4540    1.8840 C   0  0  0  0  0  2  0  0  0  0  0  0
    1.6150   -6.3370    0.6630 C   0  0  0  0  0  2  0  0  0  0  0  0
    1.5500   -5.5820   -0.5550 O   0  0  0  0  0  0  0  0  0  0  0  0
    1.1640   -6.4080   -1.6630 C   0  0  0  0  0  2  0  0  0  0  0  0
    1.1730   -5.6260   -2.9870 C   0  0  0  0  0  2  0  0  0  0  0  0
    0.2960   -4.4440   -3.0790 N   0  0  0  0  0  0  0  0  0  0  0  0
   -0.9010   -4.4020   -2.2540 C   0  0  0  0  0  1  0  0  0  0  0  0
    0.5330   -3.3720   -3.9290 C   0  0  0  0  0  0  0  0  0  0  0  0
   -0.0960   -2.3170   -3.8990 O   0  0  0  0  0  0  0  0  0  0  0  0
    4.5720   -5.8090    0.6480 H   0  0  0  0  0  0  0  0  0  0  0  0
    5.8610   -6.6120   -5.9530 C   0  0  0  0  0  3  0  0  0  0  0  0
    7.3930   -6.5430   -6.0340 C   0  0  0  0  0  2  0  0  0  0  0  0
    7.9670   -7.7180   -6.8230 C   0  0  0  0  0  2  0  0  0  0  0  0
    7.4930   -9.0580   -6.2650 C   0  0  0  0  0  2  0  0  0  0  0  0
    5.9710   -9.1320   -6.1980 C   0  0  0  0  0  2  0  0  0  0  0  0
    5.3850   -7.9680   -5.4020 C   0  0  0  0  0  2  0  0  0  0  0  0
    1.5030   -3.0080  -11.2780 C   0  0  0  0  0  1  0  0  0  0  0  0
    1.8930   -4.2900  -10.8040 O   0  0  0  0  0  0  0  0  0  0  0  0
  1  2  2  0  0  0  0
  1  6  1  0  0  0  0
  2  3  1  0  0  0  0
  3  4  2  0  0  0  0
  4 11  1  0  0  0  0
  5  4  1  0  0  0  0
  5  7  1  0  0  0  0
  6  5  2  0  0  0  0
  7  8  2  0  0  0  0
  8  9  1  0  0  0  0
  8 34  1  0  0  0  0
  9 10  1  0  0  0  0
 10 18  1  0  0  0  0
 11 12  2  0  0  0  0
 11 10  1  0  0  0  0
 12 13  1  0  0  0  0
 13 18  2  0  0  0  0
 13 14  1  0  0  0  0
 14 15  2  0  0  0  0
 15 16  1  0  0  0  0
 16 19  1  0  0  0  0
 17 16  2  0  0  0  0
 18 17  1  0  0  0  0
 19 20  2  0  0  0  0
 19 21  1  0  0  0  0
 21 22  1  0  0  0  0
 22 23  2  0  0  0  0
 22 24  2  0  0  0  0
 25 22  1  0  0  0  0
 26 25  1  0  0  0  0
 27 25  1  0  0  0  0
 28 27  1  0  0  0  0
 29 28  1  0  0  0  0
 30 29  1  0  0  0  0
 31 30  1  0  0  0  0
 32 31  1  0  0  0  0
 32 33  1  0  0  0  0
 34 35  2  0  0  0  0
 34 32  1  0  0  0  0
 36 21  1  0  0  0  0
 37 42  1  0  0  0  0
 37 12  1  0  0  0  0
 38 37  1  0  0  0  0
 39 40  1  0  0  0  0
 39 38  1  0  0  0  0
 40 41  1  0  0  0  0
 41 42  1  0  0  0  0
 43 44  1  0  0  0  0
 44  1  1  0  0  0  0
M  END
>  <minimizedAffinity>
-4.61860704

$$$$
