
 OpenBabel09092210413D

 44 49  0  0  0  0  0  0  0  0999 V2000
    6.4040   -5.4220    0.7070 C   0  0  0  0  0  0  0  0  0  0  0  0
    5.2520   -4.6540    0.8590 C   0  0  0  0  0  3  0  0  0  0  0  0
    4.4490   -4.3720   -0.2510 C   0  0  0  0  0  3  0  0  0  0  0  0
    4.7730   -4.8540   -1.5280 C   0  0  0  0  0  0  0  0  0  0  0  0
    5.9660   -5.5980   -1.6930 C   0  0  0  0  0  0  0  0  0  0  0  0
    6.7510   -5.8880   -0.5630 C   0  0  0  0  0  3  0  0  0  0  0  0
    6.4690   -6.0830   -2.9960 C   0  0  0  0  0  3  0  0  0  0  0  0
    6.3740   -5.3500   -4.1210 C   0  0  0  0  0  0  0  0  0  0  0  0
    5.7510   -3.9920   -4.1990 C   0  0  0  0  0  2  0  0  0  0  0  0
    4.3290   -4.1010   -3.8750 N   0  0  0  0  0  0  0  0  0  0  0  0
    3.8620   -4.5600   -2.6540 C   0  0  0  0  0  0  0  0  0  0  0  0
    2.4860   -4.7620   -2.7890 C   0  0  0  0  0  0  0  0  0  0  0  0
    2.1340   -4.3950   -4.1350 C   0  0  0  0  0  0  0  0  0  0  0  0
    0.9320   -4.4280   -4.8810 C   0  0  0  0  0  3  0  0  0  0  0  0
    0.9440   -4.1430   -6.2510 C   0  0  0  0  0  3  0  0  0  0  0  0
    2.1350   -3.7780   -6.8730 C   0  0  0  0  0  0  0  0  0  0  0  0
    3.3220   -3.6480   -6.1450 C   0  0  0  0  0  3  0  0  0  0  0  0
    3.3010   -3.9910   -4.7840 C   0  0  0  0  0  0  0  0  0  0  0  0
    2.2440   -3.6550   -8.3420 C   0  0  0  0  0  0  0  0  0  0  0  0
    2.8990   -2.7590   -8.8480 O   0  0  0  0  0  0  0  0  0  0  0  0
    1.6330   -4.7110   -9.0270 N   0  0  0  0  0  0  0  0  0  0  0  0
    1.8200   -5.0640  -10.6240 S   0  0  0  0  0  0  0  0  0  0  0  0
    0.9240   -6.1740  -10.8680 O   0  0  0  0  0  0  0  0  0  0  0  0
    1.7400   -3.8570  -11.4050 O   0  0  0  0  0  0  0  0  0  0  0  0
    3.3750   -5.6650  -10.6650 N   0  0  0  0  0  0  0  0  0  0  0  0
    4.5140   -4.7600  -10.4840 C   0  0  0  0  0  1  0  0  0  0  0  0
    3.6520   -7.1000  -10.4530 C   0  0  0  0  0  2  0  0  0  0  0  0
    3.2650   -7.6480   -9.0760 C   0  0  0  0  0  2  0  0  0  0  0  0
    4.0670   -7.0680   -8.0380 O   0  0  0  0  0  0  0  0  0  0  0  0
    4.2020   -7.9590   -6.9220 C   0  0  0  0  0  2  0  0  0  0  0  0
    4.9890   -7.3130   -5.7690 C   0  0  0  0  0  2  0  0  0  0  0  0
    6.3640   -6.8660   -6.0580 N   0  0  0  0  0  0  0  0  0  0  0  0
    7.1040   -7.5350   -7.1180 C   0  0  0  0  0  1  0  0  0  0  0  0
    7.0100   -5.8550   -5.3600 C   0  0  0  0  0  0  0  0  0  0  0  0
    8.0860   -5.3650   -5.6930 O   0  0  0  0  0  0  0  0  0  0  0  0
    1.2520   -5.4920   -8.5110 H   0  0  0  0  0  0  0  0  0  0  0  0
    1.5620   -5.3620   -1.7450 C   0  0  0  0  0  3  0  0  0  0  0  0
    0.4590   -4.3880   -1.3040 C   0  0  0  0  0  2  0  0  0  0  0  0
   -0.4390   -5.0050   -0.2340 C   0  0  0  0  0  2  0  0  0  0  0  0
   -1.0180   -6.3430   -0.6850 C   0  0  0  0  0  2  0  0  0  0  0  0
    0.0780   -7.3160   -1.1090 C   0  0  0  0  0  2  0  0  0  0  0  0
    0.9760   -6.7150   -2.1880 C   0  0  0  0  0  2  0  0  0  0  0  0
    6.8200   -5.6070    3.0400 C   0  0  0  0  0  1  0  0  0  0  0  0
    7.2720   -5.7750    1.7030 O   0  0  0  0  0  0  0  0  0  0  0  0
  1  2  1  0  0  0  0
  1 44  1  0  0  0  0
  3  2  2  0  0  0  0
  4  3  1  0  0  0  0
  5  4  2  0  0  0  0
  5  6  1  0  0  0  0
  6  1  2  0  0  0  0
  7  5  1  0  0  0  0
  8  7  2  0  0  0  0
  9  8  1  0  0  0  0
  9 10  1  0  0  0  0
 10 11  1  0  0  0  0
 11  4  1  0  0  0  0
 12 11  2  0  0  0  0
 12 37  1  0  0  0  0
 13 12  1  0  0  0  0
 14 13  2  0  0  0  0
 15 14  1  0  0  0  0
 16 15  2  0  0  0  0
 16 17  1  0  0  0  0
 17 18  2  0  0  0  0
 18 13  1  0  0  0  0
 18 10  1  0  0  0  0
 19 16  1  0  0  0  0
 20 19  2  0  0  0  0
 21 36  1  0  0  0  0
 21 19  1  0  0  0  0
 22 21  1  0  0  0  0
 23 22  2  0  0  0  0
 24 22  2  0  0  0  0
 25 22  1  0  0  0  0
 25 26  1  0  0  0  0
 25 27  1  0  0  0  0
 27 28  1  0  0  0  0
 28 29  1  0  0  0  0
 29 30  1  0  0  0  0
 30 31  1  0  0  0  0
 32 31  1  0  0  0  0
 32 34  1  0  0  0  0
 33 32  1  0  0  0  0
 34  8  1  0  0  0  0
 35 34  2  0  0  0  0
 37 38  1  0  0  0  0
 38 39  1  0  0  0  0
 40 39  1  0  0  0  0
 41 40  1  0  0  0  0
 42 37  1  0  0  0  0
 42 41  1  0  0  0  0
 44 43  1  0  0  0  0
M  END
>  <minimizedAffinity>
-4.60812807

$$$$
