
 OpenBabel09092210413D

 44 49  0  0  0  0  0  0  0  0999 V2000
    3.9390   -6.9770   -1.5950 C   0  0  0  0  0  0  0  0  0  0  0  0
    4.5420   -7.6540   -2.6510 C   0  0  0  0  0  3  0  0  0  0  0  0
    4.3330   -7.2270   -3.9670 C   0  0  0  0  0  3  0  0  0  0  0  0
    3.5250   -6.1160   -4.2530 C   0  0  0  0  0  0  0  0  0  0  0  0
    2.8750   -5.4530   -3.1840 C   0  0  0  0  0  0  0  0  0  0  0  0
    3.1130   -5.8840   -1.8670 C   0  0  0  0  0  3  0  0  0  0  0  0
    1.9270   -4.3320   -3.3570 C   0  0  0  0  0  3  0  0  0  0  0  0
    1.0380   -4.2910   -4.3660 C   0  0  0  0  0  0  0  0  0  0  0  0
    0.9060   -5.3400   -5.4230 C   0  0  0  0  0  2  0  0  0  0  0  0
    2.1400   -5.3850   -6.2070 N   0  0  0  0  0  0  0  0  0  0  0  0
    3.3760   -5.6850   -5.6580 C   0  0  0  0  0  0  0  0  0  0  0  0
    4.3390   -5.3940   -6.6280 C   0  0  0  0  0  0  0  0  0  0  0  0
    3.6380   -4.9180   -7.7920 C   0  0  0  0  0  0  0  0  0  0  0  0
    4.0470   -4.4240   -9.0530 C   0  0  0  0  0  3  0  0  0  0  0  0
    3.1080   -3.8800   -9.9360 C   0  0  0  0  0  3  0  0  0  0  0  0
    1.7580   -3.8680   -9.5920 C   0  0  0  0  0  0  0  0  0  0  0  0
    1.3120   -4.4310   -8.3920 C   0  0  0  0  0  3  0  0  0  0  0  0
    2.2740   -4.9220   -7.4970 C   0  0  0  0  0  0  0  0  0  0  0  0
    0.7540   -3.1380  -10.3950 C   0  0  0  0  0  0  0  0  0  0  0  0
   -0.3540   -3.6100  -10.5900 O   0  0  0  0  0  0  0  0  0  0  0  0
    1.1780   -1.8590  -10.7710 N   0  0  0  0  0  0  0  0  0  0  0  0
    0.2250   -0.6680  -11.3890 S   0  0  0  0  0  0  0  0  0  0  0  0
    1.1340    0.4150  -11.6970 O   0  0  0  0  0  0  0  0  0  0  0  0
   -0.6510   -1.2130  -12.3930 O   0  0  0  0  0  0  0  0  0  0  0  0
   -0.6600   -0.2060  -10.0530 N   0  0  0  0  0  0  0  0  0  0  0  0
   -1.6990   -1.0920   -9.5210 C   0  0  0  0  0  1  0  0  0  0  0  0
   -0.1750    0.8440   -9.1340 C   0  0  0  0  0  2  0  0  0  0  0  0
    1.1330    0.5250   -8.4030 C   0  0  0  0  0  2  0  0  0  0  0  0
    0.9700   -0.5700   -7.4910 O   0  0  0  0  0  0  0  0  0  0  0  0
    1.8860   -0.4770   -6.3920 C   0  0  0  0  0  2  0  0  0  0  0  0
    1.7770   -1.6920   -5.4540 C   0  0  0  0  0  2  0  0  0  0  0  0
    0.4660   -1.9430   -4.8270 N   0  0  0  0  0  0  0  0  0  0  0  0
   -0.4310   -0.8170   -4.6170 C   0  0  0  0  0  1  0  0  0  0  0  0
    0.0430   -3.1940   -4.3990 C   0  0  0  0  0  0  0  0  0  0  0  0
   -1.1010   -3.4450   -4.0270 O   0  0  0  0  0  0  0  0  0  0  0  0
    2.0550   -1.4980  -10.4230 H   0  0  0  0  0  0  0  0  0  0  0  0
    5.8440   -5.4620   -6.4460 C   0  0  0  0  0  3  0  0  0  0  0  0
    6.3240   -4.6890   -5.2080 C   0  0  0  0  0  2  0  0  0  0  0  0
    7.8430   -4.7490   -5.0630 C   0  0  0  0  0  2  0  0  0  0  0  0
    8.3550   -6.1880   -5.0630 C   0  0  0  0  0  2  0  0  0  0  0  0
    7.8910   -6.9500   -6.3000 C   0  0  0  0  0  2  0  0  0  0  0  0
    6.3710   -6.9080   -6.4490 C   0  0  0  0  0  2  0  0  0  0  0  0
    3.7740   -6.2480    0.6620 C   0  0  0  0  0  1  0  0  0  0  0  0
    4.0620   -7.2840   -0.2680 O   0  0  0  0  0  0  0  0  0  0  0  0
  1 44  1  0  0  0  0
  2  1  2  0  0  0  0
  3  2  1  0  0  0  0
  4  3  2  0  0  0  0
  4  5  1  0  0  0  0
  5  6  2  0  0  0  0
  6  1  1  0  0  0  0
  7  5  1  0  0  0  0
  8  7  2  0  0  0  0
  9  8  1  0  0  0  0
 10 11  1  0  0  0  0
 10  9  1  0  0  0  0
 11  4  1  0  0  0  0
 12 37  1  0  0  0  0
 12 11  2  0  0  0  0
 13 18  1  0  0  0  0
 13 12  1  0  0  0  0
 14 13  2  0  0  0  0
 15 16  2  0  0  0  0
 15 14  1  0  0  0  0
 16 17  1  0  0  0  0
 17 18  2  0  0  0  0
 18 10  1  0  0  0  0
 19 16  1  0  0  0  0
 20 19  2  0  0  0  0
 21 36  1  0  0  0  0
 21 19  1  0  0  0  0
 22 21  1  0  0  0  0
 22 25  1  0  0  0  0
 23 22  2  0  0  0  0
 24 22  2  0  0  0  0
 25 26  1  0  0  0  0
 25 27  1  0  0  0  0
 27 28  1  0  0  0  0
 28 29  1  0  0  0  0
 29 30  1  0  0  0  0
 30 31  1  0  0  0  0
 31 32  1  0  0  0  0
 32 33  1  0  0  0  0
 32 34  1  0  0  0  0
 34  8  1  0  0  0  0
 34 35  2  0  0  0  0
 37 38  1  0  0  0  0
 38 39  1  0  0  0  0
 39 40  1  0  0  0  0
 41 40  1  0  0  0  0
 42 37  1  0  0  0  0
 42 41  1  0  0  0  0
 44 43  1  0  0  0  0
M  END
>  <minimizedAffinity>
-4.56831598

$$$$
