
 OpenBabel09092210413D

 44 49  0  0  0  0  0  0  0  0999 V2000
    8.7830   -8.3250   -7.5550 C   0  0  0  0  0  0  0  0  0  0  0  0
    9.3240   -7.6800   -6.4460 C   0  0  0  0  0  3  0  0  0  0  0  0
    8.5200   -6.8490   -5.6590 C   0  0  0  0  0  3  0  0  0  0  0  0
    7.1630   -6.6510   -5.9570 C   0  0  0  0  0  0  0  0  0  0  0  0
    6.6220   -7.2700   -7.1090 C   0  0  0  0  0  0  0  0  0  0  0  0
    7.4400   -8.1170   -7.8770 C   0  0  0  0  0  3  0  0  0  0  0  0
    5.2370   -7.0700   -7.5860 C   0  0  0  0  0  3  0  0  0  0  0  0
    4.6240   -5.8740   -7.5300 C   0  0  0  0  0  0  0  0  0  0  0  0
    5.2430   -4.6280   -6.9810 C   0  0  0  0  0  2  0  0  0  0  0  0
    5.5080   -4.8160   -5.5540 N   0  0  0  0  0  0  0  0  0  0  0  0
    6.3540   -5.7970   -5.0640 C   0  0  0  0  0  0  0  0  0  0  0  0
    6.1730   -5.8420   -3.6790 C   0  0  0  0  0  0  0  0  0  0  0  0
    5.1930   -4.8410   -3.3470 C   0  0  0  0  0  0  0  0  0  0  0  0
    4.5600   -4.4460   -2.1450 C   0  0  0  0  0  3  0  0  0  0  0  0
    3.5100   -3.5210   -2.1730 C   0  0  0  0  0  3  0  0  0  0  0  0
    3.1180   -2.9520   -3.3820 C   0  0  0  0  0  0  0  0  0  0  0  0
    3.7840   -3.2540   -4.5740 C   0  0  0  0  0  3  0  0  0  0  0  0
    4.7990   -4.2230   -4.5350 C   0  0  0  0  0  0  0  0  0  0  0  0
    1.8990   -2.1230   -3.4970 C   0  0  0  0  0  0  0  0  0  0  0  0
    1.8850   -1.1260   -4.1990 O   0  0  0  0  0  0  0  0  0  0  0  0
    0.7980   -2.6730   -2.8320 N   0  0  0  0  0  0  0  0  0  0  0  0
   -0.7690   -2.1980   -3.0000 S   0  0  0  0  0  0  0  0  0  0  0  0
   -1.5060   -2.9990   -2.0470 O   0  0  0  0  0  0  0  0  0  0  0  0
   -0.8490   -0.7610   -2.9850 O   0  0  0  0  0  0  0  0  0  0  0  0
   -1.1410   -2.7710   -4.5210 N   0  0  0  0  0  0  0  0  0  0  0  0
   -0.5670   -2.1280   -5.7070 C   0  0  0  0  0  1  0  0  0  0  0  0
   -1.6740   -4.1340   -4.7210 C   0  0  0  0  0  2  0  0  0  0  0  0
   -0.7370   -5.2730   -4.3050 C   0  0  0  0  0  2  0  0  0  0  0  0
    0.4310   -5.3210   -5.1360 O   0  0  0  0  0  0  0  0  0  0  0  0
    0.9570   -6.6520   -5.2240 C   0  0  0  0  0  2  0  0  0  0  0  0
    2.2580   -6.6980   -6.0440 C   0  0  0  0  0  2  0  0  0  0  0  0
    2.1920   -6.2310   -7.4410 N   0  0  0  0  0  0  0  0  0  0  0  0
    0.9210   -6.3220   -8.1440 C   0  0  0  0  0  1  0  0  0  0  0  0
    3.2810   -5.7280   -8.1390 C   0  0  0  0  0  0  0  0  0  0  0  0
    3.2050   -5.1890   -9.2400 O   0  0  0  0  0  0  0  0  0  0  0  0
    0.8720   -3.5880   -2.4090 H   0  0  0  0  0  0  0  0  0  0  0  0
    6.8080   -6.8360   -2.7240 C   0  0  0  0  0  3  0  0  0  0  0  0
    6.8820   -6.3060   -1.2840 C   0  0  0  0  0  2  0  0  0  0  0  0
    7.5500   -7.3120   -0.3490 C   0  0  0  0  0  2  0  0  0  0  0  0
    6.8710   -8.6780   -0.4120 C   0  0  0  0  0  2  0  0  0  0  0  0
    6.8110   -9.2120   -1.8400 C   0  0  0  0  0  2  0  0  0  0  0  0
    6.1340   -8.2190   -2.7820 C   0  0  0  0  0  2  0  0  0  0  0  0
   10.0030   -8.5860   -9.5790 C   0  0  0  0  0  1  0  0  0  0  0  0
    9.4520   -9.1640   -8.4030 O   0  0  0  0  0  0  0  0  0  0  0  0
  1  2  1  0  0  0  0
  2  3  2  0  0  0  0
  4  3  1  0  0  0  0
  4 11  1  0  0  0  0
  5  4  2  0  0  0  0
  6  1  2  0  0  0  0
  6  5  1  0  0  0  0
  7  8  2  0  0  0  0
  7  5  1  0  0  0  0
  8  9  1  0  0  0  0
  9 10  1  0  0  0  0
 10 11  1  0  0  0  0
 10 18  1  0  0  0  0
 11 12  2  0  0  0  0
 12 13  1  0  0  0  0
 12 37  1  0  0  0  0
 13 14  1  0  0  0  0
 15 14  2  0  0  0  0
 16 15  1  0  0  0  0
 17 18  1  0  0  0  0
 17 16  2  0  0  0  0
 18 13  2  0  0  0  0
 19 16  1  0  0  0  0
 19 21  1  0  0  0  0
 20 19  2  0  0  0  0
 21 36  1  0  0  0  0
 22 24  2  0  0  0  0
 22 21  1  0  0  0  0
 22 23  2  0  0  0  0
 25 22  1  0  0  0  0
 26 25  1  0  0  0  0
 27 25  1  0  0  0  0
 27 28  1  0  0  0  0
 29 28  1  0  0  0  0
 30 29  1  0  0  0  0
 31 30  1  0  0  0  0
 32 31  1  0  0  0  0
 33 32  1  0  0  0  0
 34  8  1  0  0  0  0
 34 32  1  0  0  0  0
 35 34  2  0  0  0  0
 37 38  1  0  0  0  0
 38 39  1  0  0  0  0
 40 39  1  0  0  0  0
 41 40  1  0  0  0  0
 42 37  1  0  0  0  0
 42 41  1  0  0  0  0
 43 44  1  0  0  0  0
 44  1  1  0  0  0  0
M  END
>  <minimizedAffinity>
-4.58026791

$$$$
