
 OpenBabel09092210413D

 44 49  0  0  0  0  0  0  0  0999 V2000
    6.7600   -5.9010    0.4160 C   0  0  0  0  0  0  0  0  0  0  0  0
    5.8970   -4.9920    1.0200 C   0  0  0  0  0  3  0  0  0  0  0  0
    4.9310   -4.3300    0.2540 C   0  0  0  0  0  3  0  0  0  0  0  0
    4.8050   -4.5670   -1.1230 C   0  0  0  0  0  0  0  0  0  0  0  0
    5.7110   -5.4570   -1.7470 C   0  0  0  0  0  0  0  0  0  0  0  0
    6.6610   -6.1280   -0.9590 C   0  0  0  0  0  3  0  0  0  0  0  0
    5.7450   -5.7220   -3.2010 C   0  0  0  0  0  3  0  0  0  0  0  0
    5.5470   -4.7530   -4.1130 C   0  0  0  0  0  0  0  0  0  0  0  0
    5.2600   -3.3230   -3.7830 C   0  0  0  0  0  2  0  0  0  0  0  0
    3.9790   -3.2420   -3.0820 N   0  0  0  0  0  0  0  0  0  0  0  0
    3.7370   -3.8700   -1.8710 C   0  0  0  0  0  0  0  0  0  0  0  0
    2.3630   -3.7860   -1.6310 C   0  0  0  0  0  0  0  0  0  0  0  0
    1.7830   -3.0710   -2.7370 C   0  0  0  0  0  0  0  0  0  0  0  0
    0.4600   -2.7210   -3.0960 C   0  0  0  0  0  3  0  0  0  0  0  0
    0.1970   -2.1450   -4.3440 C   0  0  0  0  0  3  0  0  0  0  0  0
    1.2470   -1.8720   -5.2170 C   0  0  0  0  0  0  0  0  0  0  0  0
    2.5740   -2.1230   -4.8540 C   0  0  0  0  0  3  0  0  0  0  0  0
    2.8130   -2.7500   -3.6220 C   0  0  0  0  0  0  0  0  0  0  0  0
    1.0110   -1.4460   -6.6130 C   0  0  0  0  0  0  0  0  0  0  0  0
    1.7110   -0.5930   -7.1330 O   0  0  0  0  0  0  0  0  0  0  0  0
    0.0200   -2.1960   -7.2540 N   0  0  0  0  0  0  0  0  0  0  0  0
   -0.2850   -2.2120   -8.8720 S   0  0  0  0  0  0  0  0  0  0  0  0
   -1.4480   -3.0600   -9.0240 O   0  0  0  0  0  0  0  0  0  0  0  0
   -0.2720   -0.8670   -9.3860 O   0  0  0  0  0  0  0  0  0  0  0  0
    1.0250   -3.0590   -9.4610 N   0  0  0  0  0  0  0  0  0  0  0  0
    2.3530   -2.4370   -9.4740 C   0  0  0  0  0  1  0  0  0  0  0  0
    1.0010   -4.5300   -9.5780 C   0  0  0  0  0  2  0  0  0  0  0  0
    0.8530   -5.2930   -8.2580 C   0  0  0  0  0  2  0  0  0  0  0  0
    2.0000   -5.1130   -7.4170 O   0  0  0  0  0  0  0  0  0  0  0  0
    2.1970   -6.2390   -6.5500 C   0  0  0  0  0  2  0  0  0  0  0  0
    3.3750   -6.0180   -5.5860 C   0  0  0  0  0  2  0  0  0  0  0  0
    4.7000   -5.7730   -6.1860 N   0  0  0  0  0  0  0  0  0  0  0  0
    4.9740   -6.3110   -7.5090 C   0  0  0  0  0  1  0  0  0  0  0  0
    5.7170   -5.0750   -5.5490 C   0  0  0  0  0  0  0  0  0  0  0  0
    6.7610   -4.7260   -6.0960 O   0  0  0  0  0  0  0  0  0  0  0  0
   -0.3930   -2.9900   -6.7850 H   0  0  0  0  0  0  0  0  0  0  0  0
    1.6140   -4.4270   -0.4770 C   0  0  0  0  0  3  0  0  0  0  0  0
    0.9140   -3.3930    0.4190 C   0  0  0  0  0  2  0  0  0  0  0  0
    0.1920   -4.0610    1.5870 C   0  0  0  0  0  2  0  0  0  0  0  0
   -0.7760   -5.1400    1.1100 C   0  0  0  0  0  2  0  0  0  0  0  0
   -0.0780   -6.1750    0.2340 C   0  0  0  0  0  2  0  0  0  0  0  0
    0.6380   -5.5210   -0.9460 C   0  0  0  0  0  2  0  0  0  0  0  0
    8.2730   -7.7350    0.3440 C   0  0  0  0  0  1  0  0  0  0  0  0
    7.7420   -6.6180    1.0450 O   0  0  0  0  0  0  0  0  0  0  0  0
  1  2  1  0  0  0  0
  1 44  1  0  0  0  0
  3  2  2  0  0  0  0
  4  3  1  0  0  0  0
  5  4  2  0  0  0  0
  5  6  1  0  0  0  0
  6  1  2  0  0  0  0
  7  5  1  0  0  0  0
  8  9  1  0  0  0  0
  8  7  2  0  0  0  0
  9 10  1  0  0  0  0
 10 11  1  0  0  0  0
 11 12  2  0  0  0  0
 11  4  1  0  0  0  0
 12 37  1  0  0  0  0
 13 12  1  0  0  0  0
 14 13  1  0  0  0  0
 15 14  2  0  0  0  0
 16 17  2  0  0  0  0
 16 15  1  0  0  0  0
 17 18  1  0  0  0  0
 18 10  1  0  0  0  0
 18 13  2  0  0  0  0
 19 16  1  0  0  0  0
 20 19  2  0  0  0  0
 21 36  1  0  0  0  0
 21 19  1  0  0  0  0
 22 21  1  0  0  0  0
 23 22  2  0  0  0  0
 24 22  2  0  0  0  0
 25 22  1  0  0  0  0
 26 25  1  0  0  0  0
 27 25  1  0  0  0  0
 27 28  1  0  0  0  0
 28 29  1  0  0  0  0
 29 30  1  0  0  0  0
 30 31  1  0  0  0  0
 32 31  1  0  0  0  0
 32 34  1  0  0  0  0
 33 32  1  0  0  0  0
 34  8  1  0  0  0  0
 35 34  2  0  0  0  0
 37 38  1  0  0  0  0
 38 39  1  0  0  0  0
 40 39  1  0  0  0  0
 41 40  1  0  0  0  0
 42 37  1  0  0  0  0
 42 41  1  0  0  0  0
 43 44  1  0  0  0  0
M  END
>  <minimizedAffinity>
-4.85847425

$$$$
