
 OpenBabel09092210413D

 44 49  0  0  0  0  0  0  0  0999 V2000
    8.5610   -6.9840   -6.0790 C   0  0  0  0  0  0  0  0  0  0  0  0
    8.4530   -5.8180   -5.3270 C   0  0  0  0  0  3  0  0  0  0  0  0
    7.2360   -5.1300   -5.2750 C   0  0  0  0  0  3  0  0  0  0  0  0
    6.1050   -5.5950   -5.9630 C   0  0  0  0  0  0  0  0  0  0  0  0
    6.2250   -6.7560   -6.7640 C   0  0  0  0  0  0  0  0  0  0  0  0
    7.4490   -7.4450   -6.7890 C   0  0  0  0  0  3  0  0  0  0  0  0
    5.1390   -7.2960   -7.6100 C   0  0  0  0  0  3  0  0  0  0  0  0
    4.3010   -6.5000   -8.2990 C   0  0  0  0  0  0  0  0  0  0  0  0
    4.3500   -5.0050   -8.2880 C   0  0  0  0  0  2  0  0  0  0  0  0
    4.0580   -4.5290   -6.9360 N   0  0  0  0  0  0  0  0  0  0  0  0
    4.8360   -4.8490   -5.8350 C   0  0  0  0  0  0  0  0  0  0  0  0
    4.1320   -4.4380   -4.7000 C   0  0  0  0  0  0  0  0  0  0  0  0
    2.9020   -3.8440   -5.1560 C   0  0  0  0  0  0  0  0  0  0  0  0
    1.7700   -3.3030   -4.5020 C   0  0  0  0  0  3  0  0  0  0  0  0
    0.6390   -2.9350   -5.2390 C   0  0  0  0  0  3  0  0  0  0  0  0
    0.6460   -3.0580   -6.6270 C   0  0  0  0  0  0  0  0  0  0  0  0
    1.7820   -3.5030   -7.3090 C   0  0  0  0  0  3  0  0  0  0  0  0
    2.8860   -3.9180   -6.5490 C   0  0  0  0  0  0  0  0  0  0  0  0
   -0.5790   -2.8680   -7.4330 C   0  0  0  0  0  0  0  0  0  0  0  0
   -0.5370   -2.2940   -8.5090 O   0  0  0  0  0  0  0  0  0  0  0  0
   -1.6980   -3.5050   -6.8880 N   0  0  0  0  0  0  0  0  0  0  0  0
   -3.1310   -3.7680   -7.6560 S   0  0  0  0  0  0  0  0  0  0  0  0
   -3.9850   -4.3700   -6.6550 O   0  0  0  0  0  0  0  0  0  0  0  0
   -3.5330   -2.5790   -8.3600 O   0  0  0  0  0  0  0  0  0  0  0  0
   -2.7240   -4.9640   -8.7440 N   0  0  0  0  0  0  0  0  0  0  0  0
   -1.8860   -4.6440   -9.9030 C   0  0  0  0  0  1  0  0  0  0  0  0
   -2.8090   -6.3930   -8.3840 C   0  0  0  0  0  2  0  0  0  0  0  0
   -1.8860   -6.8410   -7.2470 C   0  0  0  0  0  2  0  0  0  0  0  0
   -0.5050   -6.7440   -7.6240 O   0  0  0  0  0  0  0  0  0  0  0  0
    0.2990   -7.6990   -6.9180 C   0  0  0  0  0  2  0  0  0  0  0  0
    1.7920   -7.5460   -7.2530 C   0  0  0  0  0  2  0  0  0  0  0  0
    2.1860   -7.7000   -8.6650 N   0  0  0  0  0  0  0  0  0  0  0  0
    1.3580   -8.5270   -9.5310 C   0  0  0  0  0  1  0  0  0  0  0  0
    3.3190   -7.1190   -9.2180 C   0  0  0  0  0  0  0  0  0  0  0  0
    3.5690   -7.1050  -10.4210 O   0  0  0  0  0  0  0  0  0  0  0  0
   -1.5950   -4.0920   -6.0710 H   0  0  0  0  0  0  0  0  0  0  0  0
    4.5390   -4.6770   -3.2580 C   0  0  0  0  0  3  0  0  0  0  0  0
    4.5500   -3.3850   -2.4260 C   0  0  0  0  0  2  0  0  0  0  0  0
    4.9900   -3.6480   -0.9870 C   0  0  0  0  0  2  0  0  0  0  0  0
    4.1450   -4.7350   -0.3280 C   0  0  0  0  0  2  0  0  0  0  0  0
    4.1470   -6.0230   -1.1460 C   0  0  0  0  0  2  0  0  0  0  0  0
    3.6970   -5.7750   -2.5840 C   0  0  0  0  0  2  0  0  0  0  0  0
    9.8340   -8.4680   -7.4320 C   0  0  0  0  0  1  0  0  0  0  0  0
    9.6830   -7.7540   -6.2120 O   0  0  0  0  0  0  0  0  0  0  0  0
  1  2  1  0  0  0  0
  2  3  2  0  0  0  0
  4 11  1  0  0  0  0
  4  3  1  0  0  0  0
  5  4  2  0  0  0  0
  6  5  1  0  0  0  0
  6  1  2  0  0  0  0
  7  5  1  0  0  0  0
  8  9  1  0  0  0  0
  8  7  2  0  0  0  0
  9 10  1  0  0  0  0
 10 18  1  0  0  0  0
 10 11  1  0  0  0  0
 11 12  2  0  0  0  0
 12 37  1  0  0  0  0
 13 12  1  0  0  0  0
 13 14  1  0  0  0  0
 15 14  2  0  0  0  0
 16 15  1  0  0  0  0
 17 16  2  0  0  0  0
 17 18  1  0  0  0  0
 18 13  2  0  0  0  0
 19 21  1  0  0  0  0
 19 16  1  0  0  0  0
 20 19  2  0  0  0  0
 21 36  1  0  0  0  0
 22 21  1  0  0  0  0
 22 23  2  0  0  0  0
 24 22  2  0  0  0  0
 25 27  1  0  0  0  0
 25 22  1  0  0  0  0
 26 25  1  0  0  0  0
 27 28  1  0  0  0  0
 29 28  1  0  0  0  0
 29 30  1  0  0  0  0
 31 30  1  0  0  0  0
 32 31  1  0  0  0  0
 33 32  1  0  0  0  0
 34 32  1  0  0  0  0
 34  8  1  0  0  0  0
 35 34  2  0  0  0  0
 37 42  1  0  0  0  0
 37 38  1  0  0  0  0
 38 39  1  0  0  0  0
 39 40  1  0  0  0  0
 41 40  1  0  0  0  0
 42 41  1  0  0  0  0
 43 44  1  0  0  0  0
 44  1  1  0  0  0  0
M  END
>  <minimizedAffinity>
-4.51180363

$$$$
