
 OpenBabel09092210413D

 44 49  0  0  0  0  0  0  0  0999 V2000
    6.5530   -3.9430    0.7590 C   0  0  0  0  0  0  0  0  0  0  0  0
    6.8760   -5.2190    0.3050 C   0  0  0  0  0  3  0  0  0  0  0  0
    6.1910   -5.7690   -0.7840 C   0  0  0  0  0  3  0  0  0  0  0  0
    5.1780   -5.0550   -1.4440 C   0  0  0  0  0  0  0  0  0  0  0  0
    4.8180   -3.7770   -0.9560 C   0  0  0  0  0  0  0  0  0  0  0  0
    5.5300   -3.2320    0.1270 C   0  0  0  0  0  3  0  0  0  0  0  0
    3.7100   -2.9630   -1.5010 C   0  0  0  0  0  3  0  0  0  0  0  0
    2.5460   -3.5090   -1.9000 C   0  0  0  0  0  0  0  0  0  0  0  0
    2.2370   -4.9720   -1.8580 C   0  0  0  0  0  2  0  0  0  0  0  0
    3.1430   -5.6770   -2.7640 N   0  0  0  0  0  0  0  0  0  0  0  0
    4.5200   -5.6700   -2.6150 C   0  0  0  0  0  0  0  0  0  0  0  0
    5.0630   -6.2230   -3.7780 C   0  0  0  0  0  0  0  0  0  0  0  0
    3.9610   -6.5770   -4.6330 C   0  0  0  0  0  0  0  0  0  0  0  0
    3.8620   -7.1140   -5.9390 C   0  0  0  0  0  3  0  0  0  0  0  0
    2.6180   -7.2020   -6.5730 C   0  0  0  0  0  3  0  0  0  0  0  0
    1.4660   -6.8040   -5.8980 C   0  0  0  0  0  0  0  0  0  0  0  0
    1.5200   -6.3540   -4.5750 C   0  0  0  0  0  3  0  0  0  0  0  0
    2.7820   -6.2230   -3.9750 C   0  0  0  0  0  0  0  0  0  0  0  0
    0.1590   -6.6940   -6.5810 C   0  0  0  0  0  0  0  0  0  0  0  0
   -0.8690   -7.0400   -6.0240 O   0  0  0  0  0  0  0  0  0  0  0  0
    0.2430   -6.0630   -7.8270 N   0  0  0  0  0  0  0  0  0  0  0  0
   -1.0250   -5.4980   -8.7120 S   0  0  0  0  0  0  0  0  0  0  0  0
   -0.4360   -5.0220   -9.9450 O   0  0  0  0  0  0  0  0  0  0  0  0
   -2.0860   -6.4700   -8.7210 O   0  0  0  0  0  0  0  0  0  0  0  0
   -1.4880   -4.1580   -7.8340 N   0  0  0  0  0  0  0  0  0  0  0  0
   -2.1550   -4.3260   -6.5400 C   0  0  0  0  0  1  0  0  0  0  0  0
   -0.8940   -2.8300   -8.0870 C   0  0  0  0  0  2  0  0  0  0  0  0
    0.6120   -2.7230   -7.8280 C   0  0  0  0  0  2  0  0  0  0  0  0
    0.9180   -2.8900   -6.4360 O   0  0  0  0  0  0  0  0  0  0  0  0
    2.1160   -2.1890   -6.0760 C   0  0  0  0  0  2  0  0  0  0  0  0
    2.4980   -2.4310   -4.6050 C   0  0  0  0  0  2  0  0  0  0  0  0
    1.5130   -2.0390   -3.5800 N   0  0  0  0  0  0  0  0  0  0  0  0
    0.5750   -0.9700   -3.8890 C   0  0  0  0  0  1  0  0  0  0  0  0
    1.4420   -2.6150   -2.3190 C   0  0  0  0  0  0  0  0  0  0  0  0
    0.5310   -2.4130   -1.5190 O   0  0  0  0  0  0  0  0  0  0  0  0
    1.1220   -5.6670   -8.1310 H   0  0  0  0  0  0  0  0  0  0  0  0
    6.5390   -6.3260   -4.1180 C   0  0  0  0  0  3  0  0  0  0  0  0
    6.9340   -7.7250   -4.6150 C   0  0  0  0  0  2  0  0  0  0  0  0
    8.4280   -7.8090   -4.9220 C   0  0  0  0  0  2  0  0  0  0  0  0
    8.8660   -6.7200   -5.8980 C   0  0  0  0  0  2  0  0  0  0  0  0
    8.4870   -5.3300   -5.3970 C   0  0  0  0  0  2  0  0  0  0  0  0
    6.9930   -5.2290   -5.0970 C   0  0  0  0  0  2  0  0  0  0  0  0
    7.6050   -1.9660    1.5570 C   0  0  0  0  0  1  0  0  0  0  0  0
    7.1430   -3.2880    1.8040 O   0  0  0  0  0  0  0  0  0  0  0  0
  1 44  1  0  0  0  0
  2  1  1  0  0  0  0
  3  2  2  0  0  0  0
  4  5  2  0  0  0  0
  4  3  1  0  0  0  0
  5  6  1  0  0  0  0
  6  1  2  0  0  0  0
  7  5  1  0  0  0  0
  8  9  1  0  0  0  0
  8  7  2  0  0  0  0
 10 11  1  0  0  0  0
 10  9  1  0  0  0  0
 11  4  1  0  0  0  0
 12 11  2  0  0  0  0
 13 18  1  0  0  0  0
 13 12  1  0  0  0  0
 14 13  2  0  0  0  0
 15 14  1  0  0  0  0
 15 16  2  0  0  0  0
 16 17  1  0  0  0  0
 17 18  2  0  0  0  0
 18 10  1  0  0  0  0
 19 20  2  0  0  0  0
 19 16  1  0  0  0  0
 21 19  1  0  0  0  0
 22 25  1  0  0  0  0
 22 21  1  0  0  0  0
 23 22  2  0  0  0  0
 24 22  2  0  0  0  0
 25 26  1  0  0  0  0
 27 25  1  0  0  0  0
 27 28  1  0  0  0  0
 28 29  1  0  0  0  0
 29 30  1  0  0  0  0
 30 31  1  0  0  0  0
 31 32  1  0  0  0  0
 32 34  1  0  0  0  0
 33 32  1  0  0  0  0
 34  8  1  0  0  0  0
 34 35  2  0  0  0  0
 36 21  1  0  0  0  0
 37 12  1  0  0  0  0
 38 37  1  0  0  0  0
 39 38  1  0  0  0  0
 40 41  1  0  0  0  0
 40 39  1  0  0  0  0
 41 42  1  0  0  0  0
 42 37  1  0  0  0  0
 43 44  1  0  0  0  0
M  END
>  <minimizedAffinity>
-4.96395826

$$$$
