
 OpenBabel09092210413D

 44 49  0  0  0  0  0  0  0  0999 V2000
    6.4550   -5.1950   -0.2110 C   0  0  0  0  0  0  0  0  0  0  0  0
    5.4580   -4.2490   -0.4320 C   0  0  0  0  0  3  0  0  0  0  0  0
    4.8850   -4.1210   -1.7020 C   0  0  0  0  0  3  0  0  0  0  0  0
    5.2890   -4.9360   -2.7700 C   0  0  0  0  0  0  0  0  0  0  0  0
    6.3340   -5.8670   -2.5590 C   0  0  0  0  0  0  0  0  0  0  0  0
    6.8840   -5.9960   -1.2720 C   0  0  0  0  0  3  0  0  0  0  0  0
    6.9150   -6.7180   -3.6200 C   0  0  0  0  0  3  0  0  0  0  0  0
    7.1170   -6.2680   -4.8720 C   0  0  0  0  0  0  0  0  0  0  0  0
    6.7760   -4.8900   -5.3430 C   0  0  0  0  0  2  0  0  0  0  0  0
    5.3280   -4.7030   -5.2630 N   0  0  0  0  0  0  0  0  0  0  0  0
    4.6170   -4.7840   -4.0770 C   0  0  0  0  0  0  0  0  0  0  0  0
    3.2600   -4.8040   -4.4110 C   0  0  0  0  0  0  0  0  0  0  0  0
    3.1750   -4.7180   -5.8450 C   0  0  0  0  0  0  0  0  0  0  0  0
    2.1050   -4.7460   -6.7700 C   0  0  0  0  0  3  0  0  0  0  0  0
    2.3620   -4.7990   -8.1450 C   0  0  0  0  0  3  0  0  0  0  0  0
    3.6760   -4.7760   -8.6050 C   0  0  0  0  0  0  0  0  0  0  0  0
    4.7520   -4.6570   -7.7200 C   0  0  0  0  0  3  0  0  0  0  0  0
    4.4770   -4.6590   -6.3450 C   0  0  0  0  0  0  0  0  0  0  0  0
    4.0100   -5.0230  -10.0250 C   0  0  0  0  0  0  0  0  0  0  0  0
    4.8850   -4.3810  -10.5820 O   0  0  0  0  0  0  0  0  0  0  0  0
    3.3160   -6.1070  -10.5710 N   0  0  0  0  0  0  0  0  0  0  0  0
    3.6560   -6.8530  -11.9980 S   0  0  0  0  0  0  0  0  0  0  0  0
    2.6120   -7.8420  -12.1610 O   0  0  0  0  0  0  0  0  0  0  0  0
    3.9130   -5.8680  -13.0160 O   0  0  0  0  0  0  0  0  0  0  0  0
    5.0610   -7.6720  -11.6330 N   0  0  0  0  0  0  0  0  0  0  0  0
    6.3130   -6.9320  -11.4450 C   0  0  0  0  0  1  0  0  0  0  0  0
    5.0320   -9.0410  -11.0790 C   0  0  0  0  0  2  0  0  0  0  0  0
    4.3610   -9.1820   -9.7100 C   0  0  0  0  0  2  0  0  0  0  0  0
    5.1030   -8.5000   -8.6900 O   0  0  0  0  0  0  0  0  0  0  0  0
    4.9110   -9.1100   -7.4060 C   0  0  0  0  0  2  0  0  0  0  0  0
    5.6350   -8.3350   -6.2920 C   0  0  0  0  0  2  0  0  0  0  0  0
    7.0960   -8.1810   -6.4180 N   0  0  0  0  0  0  0  0  0  0  0  0
    7.8390   -9.1850   -7.1640 C   0  0  0  0  0  1  0  0  0  0  0  0
    7.8150   -7.1410   -5.8430 C   0  0  0  0  0  0  0  0  0  0  0  0
    9.0000   -6.9120   -6.0730 O   0  0  0  0  0  0  0  0  0  0  0  0
    2.7270   -6.6760   -9.9790 H   0  0  0  0  0  0  0  0  0  0  0  0
    2.1030   -4.9930   -3.4470 C   0  0  0  0  0  3  0  0  0  0  0  0
    1.1490   -3.7890   -3.4270 C   0  0  0  0  0  2  0  0  0  0  0  0
    0.0100   -3.9920   -2.4300 C   0  0  0  0  0  2  0  0  0  0  0  0
   -0.7370   -5.2980   -2.6850 C   0  0  0  0  0  2  0  0  0  0  0  0
    0.2070   -6.4960   -2.6900 C   0  0  0  0  0  2  0  0  0  0  0  0
    1.3450   -6.3100   -3.6920 C   0  0  0  0  0  2  0  0  0  0  0  0
    6.3860   -5.0970    2.1640 C   0  0  0  0  0  1  0  0  0  0  0  0
    7.0940   -5.4280    0.9760 O   0  0  0  0  0  0  0  0  0  0  0  0
  1 44  1  0  0  0  0
  2  1  1  0  0  0  0
  3  2  2  0  0  0  0
  4  5  2  0  0  0  0
  4  3  1  0  0  0  0
  5  6  1  0  0  0  0
  6  1  2  0  0  0  0
  7  5  1  0  0  0  0
  8  7  2  0  0  0  0
  9 10  1  0  0  0  0
  9  8  1  0  0  0  0
 10 11  1  0  0  0  0
 11  4  1  0  0  0  0
 12 11  2  0  0  0  0
 12 37  1  0  0  0  0
 13 12  1  0  0  0  0
 14 13  2  0  0  0  0
 15 14  1  0  0  0  0
 16 15  2  0  0  0  0
 16 17  1  0  0  0  0
 17 18  2  0  0  0  0
 18 13  1  0  0  0  0
 18 10  1  0  0  0  0
 19 16  1  0  0  0  0
 20 19  2  0  0  0  0
 21 19  1  0  0  0  0
 21 36  1  0  0  0  0
 22 25  1  0  0  0  0
 22 21  1  0  0  0  0
 23 22  2  0  0  0  0
 24 22  2  0  0  0  0
 25 26  1  0  0  0  0
 25 27  1  0  0  0  0
 27 28  1  0  0  0  0
 28 29  1  0  0  0  0
 29 30  1  0  0  0  0
 30 31  1  0  0  0  0
 32 31  1  0  0  0  0
 32 34  1  0  0  0  0
 33 32  1  0  0  0  0
 34  8  1  0  0  0  0
 35 34  2  0  0  0  0
 37 38  1  0  0  0  0
 38 39  1  0  0  0  0
 40 39  1  0  0  0  0
 41 40  1  0  0  0  0
 42 37  1  0  0  0  0
 42 41  1  0  0  0  0
 44 43  1  0  0  0  0
M  END
>  <minimizedAffinity>
-5.17752123

$$$$
