
 OpenBabel09092210413D

 44 49  0  0  0  0  0  0  0  0999 V2000
    8.5600   -6.9880   -6.0760 C   0  0  0  0  0  0  0  0  0  0  0  0
    8.4520   -5.8210   -5.3250 C   0  0  0  0  0  3  0  0  0  0  0  0
    7.2360   -5.1320   -5.2740 C   0  0  0  0  0  3  0  0  0  0  0  0
    6.1050   -5.5960   -5.9630 C   0  0  0  0  0  0  0  0  0  0  0  0
    6.2240   -6.7570   -6.7630 C   0  0  0  0  0  0  0  0  0  0  0  0
    7.4480   -7.4480   -6.7870 C   0  0  0  0  0  3  0  0  0  0  0  0
    5.1390   -7.2970   -7.6090 C   0  0  0  0  0  3  0  0  0  0  0  0
    4.3020   -6.5010   -8.2990 C   0  0  0  0  0  0  0  0  0  0  0  0
    4.3510   -5.0060   -8.2880 C   0  0  0  0  0  2  0  0  0  0  0  0
    4.0590   -4.5290   -6.9360 N   0  0  0  0  0  0  0  0  0  0  0  0
    4.8360   -4.8490   -5.8350 C   0  0  0  0  0  0  0  0  0  0  0  0
    4.1320   -4.4380   -4.7010 C   0  0  0  0  0  0  0  0  0  0  0  0
    2.9030   -3.8430   -5.1570 C   0  0  0  0  0  0  0  0  0  0  0  0
    1.7710   -3.3010   -4.5040 C   0  0  0  0  0  3  0  0  0  0  0  0
    0.6410   -2.9320   -5.2420 C   0  0  0  0  0  3  0  0  0  0  0  0
    0.6480   -3.0550   -6.6290 C   0  0  0  0  0  0  0  0  0  0  0  0
    1.7840   -3.5020   -7.3110 C   0  0  0  0  0  3  0  0  0  0  0  0
    2.8880   -3.9170   -6.5510 C   0  0  0  0  0  0  0  0  0  0  0  0
   -0.5760   -2.8650   -7.4370 C   0  0  0  0  0  0  0  0  0  0  0  0
   -0.5330   -2.2910   -8.5120 O   0  0  0  0  0  0  0  0  0  0  0  0
   -1.6960   -3.5010   -6.8920 N   0  0  0  0  0  0  0  0  0  0  0  0
   -3.1290   -3.7630   -7.6600 S   0  0  0  0  0  0  0  0  0  0  0  0
   -3.9840   -4.3640   -6.6590 O   0  0  0  0  0  0  0  0  0  0  0  0
   -3.5300   -2.5740   -8.3660 O   0  0  0  0  0  0  0  0  0  0  0  0
   -2.7230   -4.9600   -8.7480 N   0  0  0  0  0  0  0  0  0  0  0  0
   -1.8830   -4.6410   -9.9070 C   0  0  0  0  0  1  0  0  0  0  0  0
   -2.8090   -6.3890   -8.3870 C   0  0  0  0  0  2  0  0  0  0  0  0
   -1.8860   -6.8370   -7.2490 C   0  0  0  0  0  2  0  0  0  0  0  0
   -0.5050   -6.7410   -7.6260 O   0  0  0  0  0  0  0  0  0  0  0  0
    0.2980   -7.6970   -6.9190 C   0  0  0  0  0  2  0  0  0  0  0  0
    1.7910   -7.5450   -7.2530 C   0  0  0  0  0  2  0  0  0  0  0  0
    2.1850   -7.6990   -8.6660 N   0  0  0  0  0  0  0  0  0  0  0  0
    1.3580   -8.5260   -9.5320 C   0  0  0  0  0  1  0  0  0  0  0  0
    3.3190   -7.1200   -9.2180 C   0  0  0  0  0  0  0  0  0  0  0  0
    3.5700   -7.1060  -10.4210 O   0  0  0  0  0  0  0  0  0  0  0  0
   -1.5940   -4.0880   -6.0750 H   0  0  0  0  0  0  0  0  0  0  0  0
    4.5380   -4.6760   -3.2580 C   0  0  0  0  0  3  0  0  0  0  0  0
    4.5470   -3.3840   -2.4260 C   0  0  0  0  0  2  0  0  0  0  0  0
    4.9860   -3.6470   -0.9870 C   0  0  0  0  0  2  0  0  0  0  0  0
    4.1420   -4.7350   -0.3290 C   0  0  0  0  0  2  0  0  0  0  0  0
    4.1460   -6.0230   -1.1470 C   0  0  0  0  0  2  0  0  0  0  0  0
    3.6970   -5.7750   -2.5850 C   0  0  0  0  0  2  0  0  0  0  0  0
    9.8340   -8.4690   -7.4300 C   0  0  0  0  0  1  0  0  0  0  0  0
    9.6820   -7.7580   -6.2080 O   0  0  0  0  0  0  0  0  0  0  0  0
  1  2  1  0  0  0  0
  2  3  2  0  0  0  0
  4 11  1  0  0  0  0
  4  3  1  0  0  0  0
  5  4  2  0  0  0  0
  6  5  1  0  0  0  0
  6  1  2  0  0  0  0
  7  5  1  0  0  0  0
  8  9  1  0  0  0  0
  8  7  2  0  0  0  0
  9 10  1  0  0  0  0
 10 18  1  0  0  0  0
 10 11  1  0  0  0  0
 11 12  2  0  0  0  0
 12 37  1  0  0  0  0
 13 12  1  0  0  0  0
 13 14  1  0  0  0  0
 15 14  2  0  0  0  0
 16 15  1  0  0  0  0
 17 16  2  0  0  0  0
 17 18  1  0  0  0  0
 18 13  2  0  0  0  0
 19 21  1  0  0  0  0
 19 16  1  0  0  0  0
 20 19  2  0  0  0  0
 21 36  1  0  0  0  0
 22 21  1  0  0  0  0
 22 23  2  0  0  0  0
 24 22  2  0  0  0  0
 25 27  1  0  0  0  0
 25 22  1  0  0  0  0
 26 25  1  0  0  0  0
 27 28  1  0  0  0  0
 29 28  1  0  0  0  0
 29 30  1  0  0  0  0
 31 30  1  0  0  0  0
 32 31  1  0  0  0  0
 33 32  1  0  0  0  0
 34 32  1  0  0  0  0
 34  8  1  0  0  0  0
 35 34  2  0  0  0  0
 37 42  1  0  0  0  0
 37 38  1  0  0  0  0
 38 39  1  0  0  0  0
 39 40  1  0  0  0  0
 41 40  1  0  0  0  0
 42 41  1  0  0  0  0
 43 44  1  0  0  0  0
 44  1  1  0  0  0  0
M  END
>  <minimizedAffinity>
-4.51036167

$$$$
