
 OpenBabel09092210413D

 44 49  0  0  0  0  0  0  0  0999 V2000
    3.9350   -6.9790   -1.5970 C   0  0  0  0  0  0  0  0  0  0  0  0
    4.5390   -7.6560   -2.6530 C   0  0  0  0  0  3  0  0  0  0  0  0
    4.3300   -7.2290   -3.9680 C   0  0  0  0  0  3  0  0  0  0  0  0
    3.5230   -6.1180   -4.2550 C   0  0  0  0  0  0  0  0  0  0  0  0
    2.8720   -5.4550   -3.1870 C   0  0  0  0  0  0  0  0  0  0  0  0
    3.1090   -5.8860   -1.8700 C   0  0  0  0  0  3  0  0  0  0  0  0
    1.9250   -4.3330   -3.3600 C   0  0  0  0  0  3  0  0  0  0  0  0
    1.0360   -4.2920   -4.3700 C   0  0  0  0  0  0  0  0  0  0  0  0
    0.9040   -5.3420   -5.4270 C   0  0  0  0  0  2  0  0  0  0  0  0
    2.1390   -5.3880   -6.2100 N   0  0  0  0  0  0  0  0  0  0  0  0
    3.3740   -5.6880   -5.6610 C   0  0  0  0  0  0  0  0  0  0  0  0
    4.3370   -5.3970   -6.6300 C   0  0  0  0  0  0  0  0  0  0  0  0
    3.6360   -4.9210   -7.7940 C   0  0  0  0  0  0  0  0  0  0  0  0
    4.0470   -4.4280   -9.0560 C   0  0  0  0  0  3  0  0  0  0  0  0
    3.1080   -3.8840   -9.9390 C   0  0  0  0  0  3  0  0  0  0  0  0
    1.7580   -3.8720   -9.5950 C   0  0  0  0  0  0  0  0  0  0  0  0
    1.3110   -4.4340   -8.3960 C   0  0  0  0  0  3  0  0  0  0  0  0
    2.2730   -4.9260   -7.5000 C   0  0  0  0  0  0  0  0  0  0  0  0
    0.7540   -3.1420  -10.3990 C   0  0  0  0  0  0  0  0  0  0  0  0
   -0.3540   -3.6140  -10.5950 O   0  0  0  0  0  0  0  0  0  0  0  0
    1.1780   -1.8630  -10.7760 N   0  0  0  0  0  0  0  0  0  0  0  0
    0.2260   -0.6720  -11.3940 S   0  0  0  0  0  0  0  0  0  0  0  0
    1.1350    0.4110  -11.7030 O   0  0  0  0  0  0  0  0  0  0  0  0
   -0.6500   -1.2180  -12.3980 O   0  0  0  0  0  0  0  0  0  0  0  0
   -0.6590   -0.2090  -10.0590 N   0  0  0  0  0  0  0  0  0  0  0  0
   -1.6990   -1.0960   -9.5270 C   0  0  0  0  0  1  0  0  0  0  0  0
   -0.1750    0.8400   -9.1410 C   0  0  0  0  0  2  0  0  0  0  0  0
    1.1330    0.5220   -8.4090 C   0  0  0  0  0  2  0  0  0  0  0  0
    0.9690   -0.5730   -7.4970 O   0  0  0  0  0  0  0  0  0  0  0  0
    1.8860   -0.4800   -6.3970 C   0  0  0  0  0  2  0  0  0  0  0  0
    1.7750   -1.6940   -5.4590 C   0  0  0  0  0  2  0  0  0  0  0  0
    0.4650   -1.9450   -4.8320 N   0  0  0  0  0  0  0  0  0  0  0  0
   -0.4320   -0.8190   -4.6220 C   0  0  0  0  0  1  0  0  0  0  0  0
    0.0410   -3.1960   -4.4040 C   0  0  0  0  0  0  0  0  0  0  0  0
   -1.1030   -3.4460   -4.0320 O   0  0  0  0  0  0  0  0  0  0  0  0
    2.0560   -1.5020  -10.4270 H   0  0  0  0  0  0  0  0  0  0  0  0
    5.8420   -5.4650   -6.4480 C   0  0  0  0  0  3  0  0  0  0  0  0
    6.3220   -4.6950   -5.2080 C   0  0  0  0  0  2  0  0  0  0  0  0
    7.8410   -4.7550   -5.0630 C   0  0  0  0  0  2  0  0  0  0  0  0
    8.3520   -6.1930   -5.0650 C   0  0  0  0  0  2  0  0  0  0  0  0
    7.8890   -6.9540   -6.3040 C   0  0  0  0  0  2  0  0  0  0  0  0
    6.3690   -6.9110   -6.4530 C   0  0  0  0  0  2  0  0  0  0  0  0
    3.6900   -6.2750    0.6610 C   0  0  0  0  0  1  0  0  0  0  0  0
    4.0580   -7.2850   -0.2700 O   0  0  0  0  0  0  0  0  0  0  0  0
  1 44  1  0  0  0  0
  2  1  2  0  0  0  0
  3  2  1  0  0  0  0
  4  3  2  0  0  0  0
  4  5  1  0  0  0  0
  5  6  2  0  0  0  0
  6  1  1  0  0  0  0
  7  5  1  0  0  0  0
  8  7  2  0  0  0  0
  9  8  1  0  0  0  0
 10 11  1  0  0  0  0
 10  9  1  0  0  0  0
 11  4  1  0  0  0  0
 12 37  1  0  0  0  0
 12 11  2  0  0  0  0
 13 18  1  0  0  0  0
 13 12  1  0  0  0  0
 14 13  2  0  0  0  0
 15 16  2  0  0  0  0
 15 14  1  0  0  0  0
 16 17  1  0  0  0  0
 17 18  2  0  0  0  0
 18 10  1  0  0  0  0
 19 16  1  0  0  0  0
 20 19  2  0  0  0  0
 21 36  1  0  0  0  0
 21 19  1  0  0  0  0
 22 21  1  0  0  0  0
 22 25  1  0  0  0  0
 23 22  2  0  0  0  0
 24 22  2  0  0  0  0
 25 26  1  0  0  0  0
 25 27  1  0  0  0  0
 27 28  1  0  0  0  0
 28 29  1  0  0  0  0
 29 30  1  0  0  0  0
 30 31  1  0  0  0  0
 31 32  1  0  0  0  0
 32 33  1  0  0  0  0
 32 34  1  0  0  0  0
 34  8  1  0  0  0  0
 34 35  2  0  0  0  0
 37 38  1  0  0  0  0
 38 39  1  0  0  0  0
 40 39  1  0  0  0  0
 41 40  1  0  0  0  0
 42 37  1  0  0  0  0
 42 41  1  0  0  0  0
 44 43  1  0  0  0  0
M  END
>  <minimizedAffinity>
-4.56511641

$$$$
