
 OpenBabel09092210413D

 44 49  0  0  0  0  0  0  0  0999 V2000
   -0.5750   -0.3340  -12.7640 C   0  0  0  0  0  0  0  0  0  0  0  0
    0.2350   -1.2200  -13.4690 C   0  0  0  0  0  3  0  0  0  0  0  0
    1.0840   -2.0910  -12.7780 C   0  0  0  0  0  3  0  0  0  0  0  0
    1.1360   -2.1000  -11.3760 C   0  0  0  0  0  0  0  0  0  0  0  0
    0.3460   -1.1700  -10.6590 C   0  0  0  0  0  0  0  0  0  0  0  0
   -0.5160   -0.3150  -11.3680 C   0  0  0  0  0  3  0  0  0  0  0  0
    0.3780   -1.0130   -9.1890 C   0  0  0  0  0  3  0  0  0  0  0  0
    1.5190   -1.0970   -8.4820 C   0  0  0  0  0  0  0  0  0  0  0  0
    2.8660   -1.3670   -9.0740 C   0  0  0  0  0  2  0  0  0  0  0  0
    2.8660   -2.7040   -9.6690 N   0  0  0  0  0  0  0  0  0  0  0  0
    2.0200   -3.0730  -10.7010 C   0  0  0  0  0  0  0  0  0  0  0  0
    2.1210   -4.4600  -10.8400 C   0  0  0  0  0  0  0  0  0  0  0  0
    3.0710   -4.9160   -9.8590 C   0  0  0  0  0  0  0  0  0  0  0  0
    3.5510   -6.1890   -9.4730 C   0  0  0  0  0  3  0  0  0  0  0  0
    4.3790   -6.3210   -8.3520 C   0  0  0  0  0  3  0  0  0  0  0  0
    4.7700   -5.1880   -7.6430 C   0  0  0  0  0  0  0  0  0  0  0  0
    4.3870   -3.9070   -8.0540 C   0  0  0  0  0  3  0  0  0  0  0  0
    3.5140   -3.8000   -9.1470 C   0  0  0  0  0  0  0  0  0  0  0  0
    5.4800   -5.2830   -6.3490 C   0  0  0  0  0  0  0  0  0  0  0  0
    6.3850   -4.5130   -6.0740 O   0  0  0  0  0  0  0  0  0  0  0  0
    4.9240   -6.2360   -5.4880 N   0  0  0  0  0  0  0  0  0  0  0  0
    5.2480   -6.3930   -3.8820 S   0  0  0  0  0  0  0  0  0  0  0  0
    4.5060   -7.5640   -3.4650 O   0  0  0  0  0  0  0  0  0  0  0  0
    6.6670   -6.2920   -3.6570 O   0  0  0  0  0  0  0  0  0  0  0  0
    4.4750   -5.0620   -3.2420 N   0  0  0  0  0  0  0  0  0  0  0  0
    5.0210   -3.7200   -3.4660 C   0  0  0  0  0  1  0  0  0  0  0  0
    3.0600   -5.1220   -2.8240 C   0  0  0  0  0  2  0  0  0  0  0  0
    2.0560   -5.4120   -3.9440 C   0  0  0  0  0  2  0  0  0  0  0  0
    2.0060   -4.3400   -4.8950 O   0  0  0  0  0  0  0  0  0  0  0  0
    0.7210   -4.2580   -5.5260 C   0  0  0  0  0  2  0  0  0  0  0  0
    0.6850   -3.1650   -6.6080 C   0  0  0  0  0  2  0  0  0  0  0  0
    0.9800   -1.7850   -6.1820 N   0  0  0  0  0  0  0  0  0  0  0  0
    0.7070   -1.4090   -4.8030 C   0  0  0  0  0  1  0  0  0  0  0  0
    1.4850   -0.8080   -7.0300 C   0  0  0  0  0  0  0  0  0  0  0  0
    1.8860    0.2910   -6.6530 O   0  0  0  0  0  0  0  0  0  0  0  0
    4.0730   -6.7130   -5.7500 H   0  0  0  0  0  0  0  0  0  0  0  0
    1.2990   -5.3300  -11.7730 C   0  0  0  0  0  3  0  0  0  0  0  0
    2.1640   -6.0760  -12.8000 C   0  0  0  0  0  2  0  0  0  0  0  0
    1.3110   -6.9210  -13.7440 C   0  0  0  0  0  2  0  0  0  0  0  0
    0.3980   -7.8750  -12.9780 C   0  0  0  0  0  2  0  0  0  0  0  0
   -0.4730   -7.1330  -11.9690 C   0  0  0  0  0  2  0  0  0  0  0  0
    0.3700   -6.2930  -11.0110 C   0  0  0  0  0  2  0  0  0  0  0  0
   -1.4770    1.8660  -12.7410 C   0  0  0  0  0  1  0  0  0  0  0  0
   -1.4510    0.5640  -13.3110 O   0  0  0  0  0  0  0  0  0  0  0  0
  1  6  1  0  0  0  0
  2  3  1  0  0  0  0
  2  1  2  0  0  0  0
  3  4  2  0  0  0  0
  4 11  1  0  0  0  0
  4  5  1  0  0  0  0
  5  7  1  0  0  0  0
  6  5  2  0  0  0  0
  7  8  2  0  0  0  0
  8 34  1  0  0  0  0
  9  8  1  0  0  0  0
 10 18  1  0  0  0  0
 10  9  1  0  0  0  0
 11 10  1  0  0  0  0
 12 11  2  0  0  0  0
 12 13  1  0  0  0  0
 13 14  2  0  0  0  0
 13 18  1  0  0  0  0
 14 15  1  0  0  0  0
 15 16  2  0  0  0  0
 16 19  1  0  0  0  0
 17 16  1  0  0  0  0
 18 17  2  0  0  0  0
 19 20  2  0  0  0  0
 19 21  1  0  0  0  0
 21 22  1  0  0  0  0
 22 24  2  0  0  0  0
 22 23  2  0  0  0  0
 22 25  1  0  0  0  0
 25 27  1  0  0  0  0
 26 25  1  0  0  0  0
 28 27  1  0  0  0  0
 29 28  1  0  0  0  0
 30 29  1  0  0  0  0
 31 32  1  0  0  0  0
 31 30  1  0  0  0  0
 32 33  1  0  0  0  0
 34 35  2  0  0  0  0
 34 32  1  0  0  0  0
 36 21  1  0  0  0  0
 37 42  1  0  0  0  0
 37 12  1  0  0  0  0
 38 37  1  0  0  0  0
 39 40  1  0  0  0  0
 39 38  1  0  0  0  0
 40 41  1  0  0  0  0
 41 42  1  0  0  0  0
 44  1  1  0  0  0  0
 44 43  1  0  0  0  0
M  END
>  <minimizedAffinity>
-4.58677721

$$$$
