
 OpenBabel09092210413D

 44 49  0  0  0  0  0  0  0  0999 V2000
    6.4070   -5.4550    0.6970 C   0  0  0  0  0  0  0  0  0  0  0  0
    5.2520   -4.6940    0.8530 C   0  0  0  0  0  3  0  0  0  0  0  0
    4.4490   -4.4080   -0.2570 C   0  0  0  0  0  3  0  0  0  0  0  0
    4.7780   -4.8790   -1.5370 C   0  0  0  0  0  0  0  0  0  0  0  0
    5.9750   -5.6150   -1.7040 C   0  0  0  0  0  0  0  0  0  0  0  0
    6.7590   -5.9100   -0.5760 C   0  0  0  0  0  3  0  0  0  0  0  0
    6.4830   -6.0880   -3.0100 C   0  0  0  0  0  3  0  0  0  0  0  0
    6.3860   -5.3480   -4.1290 C   0  0  0  0  0  0  0  0  0  0  0  0
    5.7570   -3.9930   -4.1980 C   0  0  0  0  0  2  0  0  0  0  0  0
    4.3350   -4.1100   -3.8780 N   0  0  0  0  0  0  0  0  0  0  0  0
    3.8680   -4.5810   -2.6620 C   0  0  0  0  0  0  0  0  0  0  0  0
    2.4940   -4.7890   -2.8010 C   0  0  0  0  0  0  0  0  0  0  0  0
    2.1420   -4.4140   -4.1460 C   0  0  0  0  0  0  0  0  0  0  0  0
    0.9410   -4.4470   -4.8940 C   0  0  0  0  0  3  0  0  0  0  0  0
    0.9550   -4.1520   -6.2620 C   0  0  0  0  0  3  0  0  0  0  0  0
    2.1460   -3.7770   -6.8780 C   0  0  0  0  0  0  0  0  0  0  0  0
    3.3310   -3.6460   -6.1470 C   0  0  0  0  0  3  0  0  0  0  0  0
    3.3090   -3.9990   -4.7890 C   0  0  0  0  0  0  0  0  0  0  0  0
    2.2560   -3.6420   -8.3470 C   0  0  0  0  0  0  0  0  0  0  0  0
    2.9080   -2.7390   -8.8450 O   0  0  0  0  0  0  0  0  0  0  0  0
    1.6530   -4.6960   -9.0410 N   0  0  0  0  0  0  0  0  0  0  0  0
    1.8450   -5.0360  -10.6400 S   0  0  0  0  0  0  0  0  0  0  0  0
    0.9550   -6.1480  -10.8940 O   0  0  0  0  0  0  0  0  0  0  0  0
    1.7600   -3.8230  -11.4110 O   0  0  0  0  0  0  0  0  0  0  0  0
    3.4030   -5.6280  -10.6820 N   0  0  0  0  0  0  0  0  0  0  0  0
    4.5370   -4.7190  -10.4920 C   0  0  0  0  0  1  0  0  0  0  0  0
    3.6860   -7.0630  -10.4810 C   0  0  0  0  0  2  0  0  0  0  0  0
    3.2990   -7.6240   -9.1080 C   0  0  0  0  0  2  0  0  0  0  0  0
    4.0960   -7.0480   -8.0640 O   0  0  0  0  0  0  0  0  0  0  0  0
    4.2340   -7.9460   -6.9540 C   0  0  0  0  0  2  0  0  0  0  0  0
    5.0150   -7.3050   -5.7950 C   0  0  0  0  0  2  0  0  0  0  0  0
    6.3880   -6.8490   -6.0780 N   0  0  0  0  0  0  0  0  0  0  0  0
    7.1330   -7.5060   -7.1410 C   0  0  0  0  0  1  0  0  0  0  0  0
    7.0270   -5.8400   -5.3710 C   0  0  0  0  0  0  0  0  0  0  0  0
    8.1020   -5.3430   -5.6990 O   0  0  0  0  0  0  0  0  0  0  0  0
    1.2740   -5.4820   -8.5310 H   0  0  0  0  0  0  0  0  0  0  0  0
    1.5700   -5.4010   -1.7640 C   0  0  0  0  0  3  0  0  0  0  0  0
    0.4550   -4.4400   -1.3260 C   0  0  0  0  0  2  0  0  0  0  0  0
   -0.4420   -5.0690   -0.2620 C   0  0  0  0  0  2  0  0  0  0  0  0
   -1.0050   -6.4120   -0.7200 C   0  0  0  0  0  2  0  0  0  0  0  0
    0.1030   -7.3730   -1.1400 C   0  0  0  0  0  2  0  0  0  0  0  0
    1.0010   -6.7590   -2.2130 C   0  0  0  0  0  2  0  0  0  0  0  0
    7.5000   -7.2020    1.8840 C   0  0  0  0  0  1  0  0  0  0  0  0
    7.2750   -5.8110    1.6920 O   0  0  0  0  0  0  0  0  0  0  0  0
  1  2  1  0  0  0  0
  1 44  1  0  0  0  0
  3  2  2  0  0  0  0
  4  3  1  0  0  0  0
  5  4  2  0  0  0  0
  5  6  1  0  0  0  0
  6  1  2  0  0  0  0
  7  5  1  0  0  0  0
  8  7  2  0  0  0  0
  9  8  1  0  0  0  0
  9 10  1  0  0  0  0
 10 11  1  0  0  0  0
 11  4  1  0  0  0  0
 12 11  2  0  0  0  0
 12 37  1  0  0  0  0
 13 12  1  0  0  0  0
 14 13  2  0  0  0  0
 15 14  1  0  0  0  0
 16 15  2  0  0  0  0
 16 17  1  0  0  0  0
 17 18  2  0  0  0  0
 18 13  1  0  0  0  0
 18 10  1  0  0  0  0
 19 16  1  0  0  0  0
 20 19  2  0  0  0  0
 21 36  1  0  0  0  0
 21 19  1  0  0  0  0
 22 21  1  0  0  0  0
 23 22  2  0  0  0  0
 24 22  2  0  0  0  0
 25 22  1  0  0  0  0
 25 26  1  0  0  0  0
 25 27  1  0  0  0  0
 27 28  1  0  0  0  0
 28 29  1  0  0  0  0
 29 30  1  0  0  0  0
 30 31  1  0  0  0  0
 32 31  1  0  0  0  0
 32 34  1  0  0  0  0
 33 32  1  0  0  0  0
 34  8  1  0  0  0  0
 35 34  2  0  0  0  0
 37 38  1  0  0  0  0
 38 39  1  0  0  0  0
 40 39  1  0  0  0  0
 41 40  1  0  0  0  0
 42 37  1  0  0  0  0
 42 41  1  0  0  0  0
 44 43  1  0  0  0  0
M  END
>  <minimizedAffinity>
-4.60745907

$$$$
