
 OpenBabel09092210413D

 44 49  0  0  0  0  0  0  0  0999 V2000
    2.5710   -4.2260   -9.6290 C   0  0  0  0  0  0  0  0  0  0  0  0
    3.9530   -4.2870   -9.4750 C   0  0  0  0  0  3  0  0  0  0  0  0
    4.5110   -4.3670   -8.1940 C   0  0  0  0  0  3  0  0  0  0  0  0
    3.7030   -4.3950   -7.0470 C   0  0  0  0  0  0  0  0  0  0  0  0
    2.3000   -4.2880   -7.2000 C   0  0  0  0  0  0  0  0  0  0  0  0
    1.7560   -4.2290   -8.4940 C   0  0  0  0  0  3  0  0  0  0  0  0
    1.3460   -4.2120   -6.0730 C   0  0  0  0  0  3  0  0  0  0  0  0
    1.6140   -3.5210   -4.9500 C   0  0  0  0  0  0  0  0  0  0  0  0
    2.8830   -2.7700   -4.6980 C   0  0  0  0  0  2  0  0  0  0  0  0
    3.9970   -3.7180   -4.6540 N   0  0  0  0  0  0  0  0  0  0  0  0
    4.3480   -4.5250   -5.7240 C   0  0  0  0  0  0  0  0  0  0  0  0
    5.2720   -5.4590   -5.2490 C   0  0  0  0  0  0  0  0  0  0  0  0
    5.4780   -5.1790   -3.8520 C   0  0  0  0  0  0  0  0  0  0  0  0
    6.2380   -5.7930   -2.8280 C   0  0  0  0  0  3  0  0  0  0  0  0
    6.1060   -5.3670   -1.5010 C   0  0  0  0  0  3  0  0  0  0  0  0
    5.2610   -4.3030   -1.1950 C   0  0  0  0  0  0  0  0  0  0  0  0
    4.5660   -3.6170   -2.1970 C   0  0  0  0  0  3  0  0  0  0  0  0
    4.6690   -4.0930   -3.5130 C   0  0  0  0  0  0  0  0  0  0  0  0
    4.9380   -3.9390    0.2010 C   0  0  0  0  0  0  0  0  0  0  0  0
    4.8480   -2.7700    0.5380 O   0  0  0  0  0  0  0  0  0  0  0  0
    4.6460   -5.0470    1.0030 N   0  0  0  0  0  0  0  0  0  0  0  0
    3.9530   -5.0050    2.4960 S   0  0  0  0  0  0  0  0  0  0  0  0
    3.9450   -6.3820    2.9420 O   0  0  0  0  0  0  0  0  0  0  0  0
    4.5620   -3.9690    3.2880 O   0  0  0  0  0  0  0  0  0  0  0  0
    2.3790   -4.5930    2.1340 N   0  0  0  0  0  0  0  0  0  0  0  0
    2.0630   -3.2330    1.6840 C   0  0  0  0  0  1  0  0  0  0  0  0
    1.3620   -5.6220    1.8400 C   0  0  0  0  0  2  0  0  0  0  0  0
    1.6320   -6.4760    0.5970 C   0  0  0  0  0  2  0  0  0  0  0  0
    1.5690   -5.6910   -0.6020 O   0  0  0  0  0  0  0  0  0  0  0  0
    1.1740   -6.4870   -1.7290 C   0  0  0  0  0  2  0  0  0  0  0  0
    1.1860   -5.6730   -3.0340 C   0  0  0  0  0  2  0  0  0  0  0  0
    0.3170   -4.4830   -3.0950 N   0  0  0  0  0  0  0  0  0  0  0  0
   -0.8780   -4.4530   -2.2650 C   0  0  0  0  0  1  0  0  0  0  0  0
    0.5580   -3.3920   -3.9190 C   0  0  0  0  0  0  0  0  0  0  0  0
   -0.0630   -2.3340   -3.8610 O   0  0  0  0  0  0  0  0  0  0  0  0
    4.5920   -5.9670    0.5880 H   0  0  0  0  0  0  0  0  0  0  0  0
    5.8600   -6.6170   -6.0340 C   0  0  0  0  0  3  0  0  0  0  0  0
    7.3960   -6.5840   -6.0740 C   0  0  0  0  0  2  0  0  0  0  0  0
    7.9600   -7.7430   -6.8930 C   0  0  0  0  0  2  0  0  0  0  0  0
    7.4380   -9.0900   -6.3990 C   0  0  0  0  0  2  0  0  0  0  0  0
    5.9140   -9.1280   -6.3750 C   0  0  0  0  0  2  0  0  0  0  0  0
    5.3370   -7.9810   -5.5480 C   0  0  0  0  0  2  0  0  0  0  0  0
    1.5110   -2.8550  -11.2560 C   0  0  0  0  0  1  0  0  0  0  0  0
    1.8970   -4.1510  -10.8170 O   0  0  0  0  0  0  0  0  0  0  0  0
  1  2  2  0  0  0  0
  1  6  1  0  0  0  0
  2  3  1  0  0  0  0
  3  4  2  0  0  0  0
  4 11  1  0  0  0  0
  5  4  1  0  0  0  0
  5  7  1  0  0  0  0
  6  5  2  0  0  0  0
  7  8  2  0  0  0  0
  8  9  1  0  0  0  0
  8 34  1  0  0  0  0
  9 10  1  0  0  0  0
 10 18  1  0  0  0  0
 11 12  2  0  0  0  0
 11 10  1  0  0  0  0
 12 13  1  0  0  0  0
 13 18  2  0  0  0  0
 13 14  1  0  0  0  0
 14 15  2  0  0  0  0
 15 16  1  0  0  0  0
 16 19  1  0  0  0  0
 17 16  2  0  0  0  0
 18 17  1  0  0  0  0
 19 20  2  0  0  0  0
 19 21  1  0  0  0  0
 21 22  1  0  0  0  0
 22 23  2  0  0  0  0
 22 24  2  0  0  0  0
 25 22  1  0  0  0  0
 26 25  1  0  0  0  0
 27 25  1  0  0  0  0
 28 27  1  0  0  0  0
 29 28  1  0  0  0  0
 30 29  1  0  0  0  0
 31 30  1  0  0  0  0
 32 31  1  0  0  0  0
 32 33  1  0  0  0  0
 34 35  2  0  0  0  0
 34 32  1  0  0  0  0
 36 21  1  0  0  0  0
 37 42  1  0  0  0  0
 37 12  1  0  0  0  0
 38 37  1  0  0  0  0
 39 40  1  0  0  0  0
 39 38  1  0  0  0  0
 40 41  1  0  0  0  0
 41 42  1  0  0  0  0
 43 44  1  0  0  0  0
 44  1  1  0  0  0  0
M  END
>  <minimizedAffinity>
-4.60085821

$$$$
