
 OpenBabel09122222393D

 31 33  0  0  0  0  0  0  0  0999 V2000
   13.0030   -1.9690   -1.9410 C   0  0  0  0  0  0  0  0  0  0  0  0
   12.8850   -0.7040   -2.3920 C   0  0  0  0  0  2  0  0  0  0  0  0
   12.1330    0.3710   -1.7400 C   0  0  0  0  0  0  0  0  0  0  0  0
   10.8130    0.1520   -1.3380 C   0  0  0  0  0  3  0  0  0  0  0  0
   10.0910    1.1740   -0.7160 C   0  0  0  0  0  3  0  0  0  0  0  0
   10.6940    2.4110   -0.4830 C   0  0  0  0  0  0  0  0  0  0  0  0
   12.0050    2.6460   -0.9060 C   0  0  0  0  0  3  0  0  0  0  0  0
   12.7220    1.6240   -1.5290 C   0  0  0  0  0  3  0  0  0  0  0  0
    9.9150    3.3810    0.1080 O   0  0  0  0  0  0  0  0  0  0  0  0
   10.3260    3.8450    1.3370 C   0  0  0  0  0  0  0  0  0  0  0  0
   10.5210    2.9570    2.4030 C   0  0  0  0  0  3  0  0  0  0  0  0
   10.8940    3.4460    3.6550 C   0  0  0  0  0  3  0  0  0  0  0  0
   11.0540    4.8160    3.8360 C   0  0  0  0  0  0  0  0  0  0  0  0
   11.4110    5.2830    5.0400 F   0  0  0  0  0  0  0  0  0  0  0  0
   10.8420    5.7110    2.7940 C   0  0  0  0  0  3  0  0  0  0  0  0
   10.4680    5.2240    1.5410 C   0  0  0  0  0  0  0  0  0  0  0  0
   10.1740    6.4690    0.1410 Br  0  0  0  0  0  0  0  0  0  0  0  0
   10.9550   -4.0730   -1.7170 O   0  0  0  0  0  0  0  0  0  0  0  0
   11.3050   -3.3440   -0.7960 C   0  0  0  0  0  0  0  0  0  0  0  0
   12.3220   -2.4080   -0.8160 N   0  0  0  0  0  4  0  0  0  0  0  0
   12.6290   -2.0180    0.0620 H   0  0  0  0  0  0  0  0  0  0  0  0
   10.6300   -3.4280    0.5650 C   0  0  0  0  0  2  0  0  0  0  0  0
    9.1010   -3.4760    0.4740 C   0  0  0  0  0  2  0  0  0  0  0  0
    8.4740   -4.8550    0.2230 C   0  0  0  0  0  3  0  0  0  0  0  0
    7.5090   -5.3550    1.3000 C   0  0  0  0  0  2  0  0  0  0  0  0
    6.6550   -6.3760    0.5630 C   0  0  0  0  0  2  0  0  0  0  0  0
    6.4000   -5.6970   -0.7730 C   0  0  0  0  0  2  0  0  0  0  0  0
    7.7090   -4.9840   -1.1060 C   0  0  0  0  0  2  0  0  0  0  0  0
   13.8820   -2.8860   -2.8580 C   0  0  0  0  0  0  0  0  0  0  0  0
   14.4950   -3.8060   -2.2380 O   0  0  0  0  0  1  0  0  0  0  0  0
   13.7390   -2.6930   -4.1020 O   0  0  0  0  0  0  0  0  0  0  0  0
  1 20  2  0  0  0  0
  2  1  1  0  0  0  0
  2  3  1  0  0  0  0
  3  8  2  0  0  0  0
  3  4  1  0  0  0  0
  4  5  2  0  0  0  0
  5  6  1  0  0  0  0
  6  9  1  0  0  0  0
  7  6  2  0  0  0  0
  8  7  1  0  0  0  0
  9 10  1  0  0  0  0
 10 16  2  0  0  0  0
 10 11  1  0  0  0  0
 11 12  2  0  0  0  0
 12 13  1  0  0  0  0
 13 14  1  0  0  0  0
 15 13  2  0  0  0  0
 16 15  1  0  0  0  0
 17 16  1  0  0  0  0
 18 19  2  0  0  0  0
 19 22  1  0  0  0  0
 20 19  1  0  0  0  0
 20 21  1  0  0  0  0
 23 22  1  0  0  0  0
 24 23  1  0  0  0  0
 24 25  1  0  0  0  0
 26 25  1  0  0  0  0
 27 26  1  0  0  0  0
 28 27  1  0  0  0  0
 28 24  1  0  0  0  0
 29 30  1  0  0  0  0
 29  1  1  0  0  0  0
 31 29  2  0  0  0  0
M  END
>  <minimizedAffinity>
-6.92974472

$$$$
