
 OpenBabel09122222393D

 31 33  0  0  0  0  0  0  0  0999 V2000
    9.0380   -2.6780    1.8380 C   0  0  0  0  0  0  0  0  0  0  0  0
    8.5610   -1.4690    2.1970 C   0  0  0  0  0  2  0  0  0  0  0  0
    9.2710   -0.1950    2.0650 C   0  0  0  0  0  0  0  0  0  0  0  0
    9.6450    0.5160    3.2080 C   0  0  0  0  0  3  0  0  0  0  0  0
   10.3220    1.7320    3.0880 C   0  0  0  0  0  3  0  0  0  0  0  0
   10.6380    2.2320    1.8240 C   0  0  0  0  0  0  0  0  0  0  0  0
   10.2440    1.5400    0.6750 C   0  0  0  0  0  3  0  0  0  0  0  0
    9.5660    0.3270    0.7990 C   0  0  0  0  0  3  0  0  0  0  0  0
   11.2800    3.4500    1.7790 O   0  0  0  0  0  0  0  0  0  0  0  0
   10.5590    4.5150    1.2870 C   0  0  0  0  0  0  0  0  0  0  0  0
    9.9210    4.4260    0.0430 C   0  0  0  0  0  3  0  0  0  0  0  0
    9.2320    5.5290   -0.4630 C   0  0  0  0  0  3  0  0  0  0  0  0
    9.1990    6.7110    0.2680 C   0  0  0  0  0  0  0  0  0  0  0  0
    8.5370    7.7680   -0.2220 F   0  0  0  0  0  0  0  0  0  0  0  0
    9.8460    6.8200    1.4940 C   0  0  0  0  0  3  0  0  0  0  0  0
   10.5370    5.7200    2.0010 C   0  0  0  0  0  0  0  0  0  0  0  0
   11.4200    5.9010    3.6700 Br  0  0  0  0  0  0  0  0  0  0  0  0
    9.9930   -2.9100   -0.9380 O   0  0  0  0  0  0  0  0  0  0  0  0
   10.7040   -3.0300    0.0520 C   0  0  0  0  0  0  0  0  0  0  0  0
   10.3330   -2.8400    1.3710 N   0  0  0  0  0  4  0  0  0  0  0  0
   11.0610   -2.7840    2.0680 H   0  0  0  0  0  0  0  0  0  0  0  0
   12.1750   -3.3950   -0.0820 C   0  0  0  0  0  2  0  0  0  0  0  0
   12.5880   -3.7000   -1.5260 C   0  0  0  0  0  2  0  0  0  0  0  0
   13.6770   -2.8010   -2.1300 C   0  0  0  0  0  3  0  0  0  0  0  0
   13.4050   -1.2960   -2.0780 C   0  0  0  0  0  2  0  0  0  0  0  0
   14.7920   -0.6820   -2.1860 C   0  0  0  0  0  2  0  0  0  0  0  0
   15.6270   -1.5810   -1.2880 C   0  0  0  0  0  2  0  0  0  0  0  0
   15.0780   -2.9860   -1.5210 C   0  0  0  0  0  2  0  0  0  0  0  0
    8.0360   -3.8540    2.0960 C   0  0  0  0  0  0  0  0  0  0  0  0
    7.3920   -3.7590    3.1830 O   0  0  0  0  0  1  0  0  0  0  0  0
    7.8850   -4.6520    1.1220 O   0  0  0  0  0  0  0  0  0  0  0  0
  1 29  1  0  0  0  0
  1  2  1  0  0  0  0
  3  2  1  0  0  0  0
  3  4  1  0  0  0  0
  5  4  2  0  0  0  0
  6  5  1  0  0  0  0
  7  8  1  0  0  0  0
  7  6  2  0  0  0  0
  8  3  2  0  0  0  0
  9  6  1  0  0  0  0
 10  9  1  0  0  0  0
 10 16  1  0  0  0  0
 11 10  2  0  0  0  0
 12 11  1  0  0  0  0
 12 13  2  0  0  0  0
 13 15  1  0  0  0  0
 14 13  1  0  0  0  0
 15 16  2  0  0  0  0
 16 17  1  0  0  0  0
 18 19  2  0  0  0  0
 19 20  1  0  0  0  0
 20  1  2  0  0  0  0
 20 21  1  0  0  0  0
 22 19  1  0  0  0  0
 23 22  1  0  0  0  0
 24 25  1  0  0  0  0
 24 23  1  0  0  0  0
 24 28  1  0  0  0  0
 26 25  1  0  0  0  0
 26 27  1  0  0  0  0
 28 27  1  0  0  0  0
 29 30  1  0  0  0  0
 31 29  2  0  0  0  0
M  END
>  <minimizedAffinity>
-6.66946363

$$$$
