
 OpenBabel09122222393D

 31 33  0  0  0  0  0  0  0  0999 V2000
    9.2220   -3.2930    0.3450 C   0  0  0  0  0  0  0  0  0  0  0  0
    8.6630   -2.7600    1.4510 C   0  0  0  0  0  2  0  0  0  0  0  0
    8.9950   -1.4580    2.0360 C   0  0  0  0  0  0  0  0  0  0  0  0
    9.3820   -1.3760    3.3760 C   0  0  0  0  0  3  0  0  0  0  0  0
    9.6990   -0.1380    3.9390 C   0  0  0  0  0  3  0  0  0  0  0  0
    9.6440    1.0180    3.1590 C   0  0  0  0  0  0  0  0  0  0  0  0
    9.2320    0.9470    1.8250 C   0  0  0  0  0  3  0  0  0  0  0  0
    8.9140   -0.2910    1.2660 C   0  0  0  0  0  3  0  0  0  0  0  0
    9.9410    2.2080    3.7860 O   0  0  0  0  0  0  0  0  0  0  0  0
   11.2710    2.5560    3.8600 C   0  0  0  0  0  0  0  0  0  0  0  0
   12.0550    2.1410    4.9450 C   0  0  0  0  0  3  0  0  0  0  0  0
   13.3890    2.5390    5.0300 C   0  0  0  0  0  3  0  0  0  0  0  0
   13.9240    3.3580    4.0410 C   0  0  0  0  0  0  0  0  0  0  0  0
   15.2060    3.7390    4.1260 F   0  0  0  0  0  0  0  0  0  0  0  0
   13.1530    3.7950    2.9700 C   0  0  0  0  0  3  0  0  0  0  0  0
   11.8170    3.3990    2.8840 C   0  0  0  0  0  0  0  0  0  0  0  0
   10.7860    4.0200    1.4190 Br  0  0  0  0  0  0  0  0  0  0  0  0
   11.9260   -4.3110   -0.2250 O   0  0  0  0  0  0  0  0  0  0  0  0
   11.5470   -3.1730   -0.4720 C   0  0  0  0  0  0  0  0  0  0  0  0
   10.2690   -2.6680   -0.3150 N   0  0  0  0  0  4  0  0  0  0  0  0
   10.0530   -1.7770   -0.7360 H   0  0  0  0  0  0  0  0  0  0  0  0
   12.5040   -2.1400   -1.0480 C   0  0  0  0  0  2  0  0  0  0  0  0
   12.0890   -1.6450   -2.4380 C   0  0  0  0  0  2  0  0  0  0  0  0
   11.7020   -0.1630   -2.5480 C   0  0  0  0  0  3  0  0  0  0  0  0
   10.5530    0.2950   -1.6470 C   0  0  0  0  0  2  0  0  0  0  0  0
   10.7710    1.7970   -1.5340 C   0  0  0  0  0  2  0  0  0  0  0  0
   12.2780    1.9050   -1.3690 C   0  0  0  0  0  2  0  0  0  0  0  0
   12.8510    0.8260   -2.2850 C   0  0  0  0  0  2  0  0  0  0  0  0
    8.6490   -4.7000   -0.0360 C   0  0  0  0  0  0  0  0  0  0  0  0
    8.1220   -5.3270    0.9310 O   0  0  0  0  0  1  0  0  0  0  0  0
    8.6430   -4.9550   -1.2780 O   0  0  0  0  0  0  0  0  0  0  0  0
  1  2  1  0  0  0  0
  2  3  1  0  0  0  0
  3  4  1  0  0  0  0
  4  5  2  0  0  0  0
  6  9  1  0  0  0  0
  6  5  1  0  0  0  0
  7  6  2  0  0  0  0
  8  7  1  0  0  0  0
  8  3  2  0  0  0  0
  9 10  1  0  0  0  0
 10 11  1  0  0  0  0
 11 12  2  0  0  0  0
 13 14  1  0  0  0  0
 13 12  1  0  0  0  0
 15 13  2  0  0  0  0
 16 15  1  0  0  0  0
 16 10  2  0  0  0  0
 17 16  1  0  0  0  0
 19 20  1  0  0  0  0
 19 18  2  0  0  0  0
 20  1  2  0  0  0  0
 21 20  1  0  0  0  0
 22 19  1  0  0  0  0
 23 22  1  0  0  0  0
 24 23  1  0  0  0  0
 24 28  1  0  0  0  0
 24 25  1  0  0  0  0
 25 26  1  0  0  0  0
 26 27  1  0  0  0  0
 28 27  1  0  0  0  0
 29  1  1  0  0  0  0
 29 30  1  0  0  0  0
 31 29  2  0  0  0  0
M  END
>  <minimizedAffinity>
-7.08526707

$$$$
