
 OpenBabel09122222393D

 31 33  0  0  0  0  0  0  0  0999 V2000
   10.1090    2.8650    0.3290 C   0  0  0  0  0  0  0  0  0  0  0  0
    9.5720    2.3220    1.4400 C   0  0  0  0  0  2  0  0  0  0  0  0
    9.5000    0.8910    1.7440 C   0  0  0  0  0  0  0  0  0  0  0  0
    9.3570   -0.0350    0.7070 C   0  0  0  0  0  3  0  0  0  0  0  0
    9.2870   -1.4010    0.9910 C   0  0  0  0  0  3  0  0  0  0  0  0
    9.3730   -1.8440    2.3120 C   0  0  0  0  0  0  0  0  0  0  0  0
    9.4890   -0.9220    3.3570 C   0  0  0  0  0  3  0  0  0  0  0  0
    9.5560    0.4420    3.0700 C   0  0  0  0  0  3  0  0  0  0  0  0
    9.2680   -3.2010    2.5220 O   0  0  0  0  0  0  0  0  0  0  0  0
    7.9970   -3.7320    2.5290 C   0  0  0  0  0  0  0  0  0  0  0  0
    7.1340   -3.4930    3.6060 C   0  0  0  0  0  3  0  0  0  0  0  0
    5.8660   -4.0750    3.6210 C   0  0  0  0  0  3  0  0  0  0  0  0
    5.4780   -4.8990    2.5700 C   0  0  0  0  0  0  0  0  0  0  0  0
    4.2600   -5.4570    2.5880 F   0  0  0  0  0  0  0  0  0  0  0  0
    6.3320   -5.1630    1.5060 C   0  0  0  0  0  3  0  0  0  0  0  0
    7.6010   -4.5830    1.4890 C   0  0  0  0  0  0  0  0  0  0  0  0
    8.7500   -4.9690    0.0310 Br  0  0  0  0  0  0  0  0  0  0  0  0
   12.8680    2.5560   -0.6520 O   0  0  0  0  0  0  0  0  0  0  0  0
   11.8840    2.0470   -1.1760 C   0  0  0  0  0  0  0  0  0  0  0  0
   10.5820    2.0790   -0.7100 N   0  0  0  0  0  4  0  0  0  0  0  0
    9.9090    1.4600   -1.1340 H   0  0  0  0  0  0  0  0  0  0  0  0
   12.0120    1.2470   -2.4640 C   0  0  0  0  0  2  0  0  0  0  0  0
   11.3410   -0.1290   -2.3850 C   0  0  0  0  0  2  0  0  0  0  0  0
   12.1730   -1.2600   -1.7630 C   0  0  0  0  0  3  0  0  0  0  0  0
   11.4730   -2.6160   -1.6490 C   0  0  0  0  0  2  0  0  0  0  0  0
   12.6270   -3.6030   -1.5660 C   0  0  0  0  0  2  0  0  0  0  0  0
   13.6040   -3.0640   -2.5980 C   0  0  0  0  0  2  0  0  0  0  0  0
   13.5080   -1.5460   -2.4720 C   0  0  0  0  0  2  0  0  0  0  0  0
   10.0440    4.4300    0.2970 C   0  0  0  0  0  0  0  0  0  0  0  0
    8.9720    4.8960   -0.1930 O   0  0  0  0  0  0  0  0  0  0  0  0
   10.9890    5.0170    0.9040 O   0  0  0  0  0  1  0  0  0  0  0  0
  1  2  1  0  0  0  0
  2  3  1  0  0  0  0
  3  8  1  0  0  0  0
  4  5  1  0  0  0  0
  4  3  2  0  0  0  0
  5  6  2  0  0  0  0
  6  9  1  0  0  0  0
  6  7  1  0  0  0  0
  8  7  2  0  0  0  0
  9 10  1  0  0  0  0
 10 11  1  0  0  0  0
 11 12  2  0  0  0  0
 13 14  1  0  0  0  0
 13 12  1  0  0  0  0
 15 13  2  0  0  0  0
 16 15  1  0  0  0  0
 16 10  2  0  0  0  0
 17 16  1  0  0  0  0
 19 20  1  0  0  0  0
 19 18  2  0  0  0  0
 20  1  2  0  0  0  0
 21 20  1  0  0  0  0
 22 23  1  0  0  0  0
 22 19  1  0  0  0  0
 23 24  1  0  0  0  0
 24 25  1  0  0  0  0
 25 26  1  0  0  0  0
 27 28  1  0  0  0  0
 27 26  1  0  0  0  0
 28 24  1  0  0  0  0
 29  1  1  0  0  0  0
 29 31  1  0  0  0  0
 30 29  2  0  0  0  0
M  END
>  <minimizedAffinity>
-7.5920701

$$$$
