
 OpenBabel09122222393D

 31 33  0  0  0  0  0  0  0  0999 V2000
    8.9930   -2.7120    1.7520 C   0  0  0  0  0  0  0  0  0  0  0  0
    8.5470   -1.4720    2.0420 C   0  0  0  0  0  2  0  0  0  0  0  0
    9.2230   -0.2180    1.7020 C   0  0  0  0  0  0  0  0  0  0  0  0
    9.6240    0.0220    0.3850 C   0  0  0  0  0  3  0  0  0  0  0  0
   10.2700    1.2160    0.0550 C   0  0  0  0  0  3  0  0  0  0  0  0
   10.5030    2.1780    1.0400 C   0  0  0  0  0  0  0  0  0  0  0  0
   10.1300    1.9330    2.3640 C   0  0  0  0  0  3  0  0  0  0  0  0
    9.4870    0.7380    2.6910 C   0  0  0  0  0  3  0  0  0  0  0  0
   11.1700    3.3180    0.6500 O   0  0  0  0  0  0  0  0  0  0  0  0
   11.0360    4.4240    1.4600 C   0  0  0  0  0  0  0  0  0  0  0  0
   10.0430    5.3770    1.2010 C   0  0  0  0  0  3  0  0  0  0  0  0
    9.9480    6.5160    2.0020 C   0  0  0  0  0  3  0  0  0  0  0  0
   10.8520    6.6980    3.0430 C   0  0  0  0  0  0  0  0  0  0  0  0
   10.7590    7.7930    3.8100 F   0  0  0  0  0  0  0  0  0  0  0  0
   11.8560    5.7710    3.2980 C   0  0  0  0  0  3  0  0  0  0  0  0
   11.9540    4.6330    2.4970 C   0  0  0  0  0  0  0  0  0  0  0  0
   13.3400    3.3910    2.8610 Br  0  0  0  0  0  0  0  0  0  0  0  0
    9.6060   -3.8350   -0.9000 O   0  0  0  0  0  0  0  0  0  0  0  0
   10.4480   -3.5360   -0.0620 C   0  0  0  0  0  0  0  0  0  0  0  0
   10.2280   -2.9200    1.1570 N   0  0  0  0  0  4  0  0  0  0  0  0
   11.0240   -2.5590    1.6590 H   0  0  0  0  0  0  0  0  0  0  0  0
   11.9260   -3.8000   -0.3120 C   0  0  0  0  0  2  0  0  0  0  0  0
   12.4660   -3.0700   -1.5460 C   0  0  0  0  0  2  0  0  0  0  0  0
   12.2880   -1.5440   -1.5700 C   0  0  0  0  0  3  0  0  0  0  0  0
   13.5030   -0.7390   -2.0350 C   0  0  0  0  0  2  0  0  0  0  0  0
   12.8990    0.5790   -2.4950 C   0  0  0  0  0  2  0  0  0  0  0  0
   11.6490    0.1330   -3.2370 C   0  0  0  0  0  2  0  0  0  0  0  0
   11.1120   -1.0440   -2.4260 C   0  0  0  0  0  2  0  0  0  0  0  0
    8.0410   -3.8550    2.2410 C   0  0  0  0  0  0  0  0  0  0  0  0
    7.8660   -4.7830    1.3950 O   0  0  0  0  0  0  0  0  0  0  0  0
    7.7040   -3.7860    3.4610 O   0  0  0  0  0  1  0  0  0  0  0  0
  1  2  1  0  0  0  0
  1 29  1  0  0  0  0
  3  2  1  0  0  0  0
  3  8  1  0  0  0  0
  4  3  2  0  0  0  0
  5  4  1  0  0  0  0
  5  6  2  0  0  0  0
  6  7  1  0  0  0  0
  7  8  2  0  0  0  0
  9  6  1  0  0  0  0
  9 10  1  0  0  0  0
 10 16  1  0  0  0  0
 11 10  2  0  0  0  0
 11 12  1  0  0  0  0
 12 13  2  0  0  0  0
 13 15  1  0  0  0  0
 13 14  1  0  0  0  0
 16 17  1  0  0  0  0
 16 15  2  0  0  0  0
 18 19  2  0  0  0  0
 19 20  1  0  0  0  0
 20 21  1  0  0  0  0
 20  1  2  0  0  0  0
 22 19  1  0  0  0  0
 23 22  1  0  0  0  0
 24 23  1  0  0  0  0
 25 24  1  0  0  0  0
 26 25  1  0  0  0  0
 27 26  1  0  0  0  0
 27 28  1  0  0  0  0
 28 24  1  0  0  0  0
 29 31  1  0  0  0  0
 30 29  2  0  0  0  0
M  END
>  <minimizedAffinity>
-6.75625134

$$$$
