
 OpenBabel09122222393D

 31 33  0  0  0  0  0  0  0  0999 V2000
   12.9820   -2.0390   -1.9130 C   0  0  0  0  0  0  0  0  0  0  0  0
   12.7720   -0.8200   -2.4480 C   0  0  0  0  0  2  0  0  0  0  0  0
   12.0590    0.2870   -1.8050 C   0  0  0  0  0  0  0  0  0  0  0  0
   10.7100    0.1440   -1.4680 C   0  0  0  0  0  3  0  0  0  0  0  0
   10.0250    1.1950   -0.8560 C   0  0  0  0  0  3  0  0  0  0  0  0
   10.6920    2.3870   -0.5660 C   0  0  0  0  0  0  0  0  0  0  0  0
   12.0330    2.5470   -0.9240 C   0  0  0  0  0  3  0  0  0  0  0  0
   12.7140    1.4950   -1.5380 C   0  0  0  0  0  3  0  0  0  0  0  0
    9.9480    3.3920    0.0120 O   0  0  0  0  0  0  0  0  0  0  0  0
   10.3350    3.8080    1.2670 C   0  0  0  0  0  0  0  0  0  0  0  0
   10.4440    2.8890    2.3180 C   0  0  0  0  0  3  0  0  0  0  0  0
   10.7920    3.3320    3.5940 C   0  0  0  0  0  3  0  0  0  0  0  0
   11.0140    4.6870    3.8120 C   0  0  0  0  0  0  0  0  0  0  0  0
   11.3480    5.1100    5.0390 F   0  0  0  0  0  0  0  0  0  0  0  0
   10.8880    5.6140    2.7840 C   0  0  0  0  0  3  0  0  0  0  0  0
   10.5380    5.1730    1.5070 C   0  0  0  0  0  0  0  0  0  0  0  0
   10.3630    6.4610    0.1260 Br  0  0  0  0  0  0  0  0  0  0  0  0
   10.7020   -3.8120   -1.3380 O   0  0  0  0  0  0  0  0  0  0  0  0
   11.3120   -3.1700   -0.4910 C   0  0  0  0  0  0  0  0  0  0  0  0
   12.4430   -2.3990   -0.6870 N   0  0  0  0  0  4  0  0  0  0  0  0
   12.9520   -2.0840    0.1260 H   0  0  0  0  0  0  0  0  0  0  0  0
   10.8740   -3.1860    0.9660 C   0  0  0  0  0  2  0  0  0  0  0  0
    9.3600   -3.0300    1.1390 C   0  0  0  0  0  2  0  0  0  0  0  0
    8.8890   -2.2680    2.3870 C   0  0  0  0  0  3  0  0  0  0  0  0
    9.3670   -2.8260    3.7290 C   0  0  0  0  0  2  0  0  0  0  0  0
    9.2610   -1.6330    4.6660 C   0  0  0  0  0  2  0  0  0  0  0  0
    9.7860   -0.4900    3.8130 C   0  0  0  0  0  2  0  0  0  0  0  0
    9.2580   -0.7740    2.4090 C   0  0  0  0  0  2  0  0  0  0  0  0
   13.7860   -3.0080   -2.8440 C   0  0  0  0  0  0  0  0  0  0  0  0
   13.7450   -2.7020   -4.0730 O   0  0  0  0  0  0  0  0  0  0  0  0
   14.4960   -3.8660   -2.2380 O   0  0  0  0  0  1  0  0  0  0  0  0
  1 20  2  0  0  0  0
  2  1  1  0  0  0  0
  2  3  1  0  0  0  0
  3  8  2  0  0  0  0
  3  4  1  0  0  0  0
  4  5  2  0  0  0  0
  5  6  1  0  0  0  0
  6  9  1  0  0  0  0
  7  6  2  0  0  0  0
  8  7  1  0  0  0  0
  9 10  1  0  0  0  0
 10 16  2  0  0  0  0
 10 11  1  0  0  0  0
 11 12  2  0  0  0  0
 12 13  1  0  0  0  0
 13 14  1  0  0  0  0
 15 13  2  0  0  0  0
 16 15  1  0  0  0  0
 17 16  1  0  0  0  0
 18 19  2  0  0  0  0
 19 22  1  0  0  0  0
 20 19  1  0  0  0  0
 20 21  1  0  0  0  0
 22 23  1  0  0  0  0
 23 24  1  0  0  0  0
 24 28  1  0  0  0  0
 24 25  1  0  0  0  0
 25 26  1  0  0  0  0
 27 26  1  0  0  0  0
 28 27  1  0  0  0  0
 29 31  1  0  0  0  0
 29  1  1  0  0  0  0
 30 29  2  0  0  0  0
M  END
>  <minimizedAffinity>
-6.72383261

$$$$
