
 OpenBabel09122222393D

 31 33  0  0  0  0  0  0  0  0999 V2000
    9.3180   -3.2160    0.2500 C   0  0  0  0  0  0  0  0  0  0  0  0
    8.7500   -2.5680    1.2870 C   0  0  0  0  0  2  0  0  0  0  0  0
    9.1450   -1.2510    1.7930 C   0  0  0  0  0  0  0  0  0  0  0  0
    9.2310   -0.1660    0.9160 C   0  0  0  0  0  3  0  0  0  0  0  0
    9.6080    1.0920    1.3920 C   0  0  0  0  0  3  0  0  0  0  0  0
    9.8850    1.2700    2.7490 C   0  0  0  0  0  0  0  0  0  0  0  0
    9.8260    0.1840    3.6270 C   0  0  0  0  0  3  0  0  0  0  0  0
    9.4520   -1.0720    3.1470 C   0  0  0  0  0  3  0  0  0  0  0  0
   10.2780    2.5290    3.1440 O   0  0  0  0  0  0  0  0  0  0  0  0
   10.7640    3.3650    2.1630 C   0  0  0  0  0  0  0  0  0  0  0  0
    9.9380    3.7770    1.1090 C   0  0  0  0  0  3  0  0  0  0  0  0
   10.4560    4.5870    0.0980 C   0  0  0  0  0  3  0  0  0  0  0  0
   11.7940    4.9650    0.1410 C   0  0  0  0  0  0  0  0  0  0  0  0
   12.2890    5.7420   -0.8320 F   0  0  0  0  0  0  0  0  0  0  0  0
   12.6300    4.5460    1.1690 C   0  0  0  0  0  3  0  0  0  0  0  0
   12.1150    3.7340    2.1800 C   0  0  0  0  0  0  0  0  0  0  0  0
   13.2810    3.1680    3.5640 Br  0  0  0  0  0  0  0  0  0  0  0  0
   11.9380   -4.4830   -0.2030 O   0  0  0  0  0  0  0  0  0  0  0  0
   11.6640   -3.3280   -0.5050 C   0  0  0  0  0  0  0  0  0  0  0  0
   10.4310   -2.7100   -0.4040 N   0  0  0  0  0  4  0  0  0  0  0  0
   10.3020   -1.8230   -0.8660 H   0  0  0  0  0  0  0  0  0  0  0  0
   12.7210   -2.4050   -1.0940 C   0  0  0  0  0  2  0  0  0  0  0  0
   12.3890   -1.9430   -2.5170 C   0  0  0  0  0  2  0  0  0  0  0  0
   12.1300   -0.4410   -2.7060 C   0  0  0  0  0  3  0  0  0  0  0  0
   10.7800    0.0710   -2.2020 C   0  0  0  0  0  2  0  0  0  0  0  0
   11.0230    1.5570   -1.9870 C   0  0  0  0  0  2  0  0  0  0  0  0
   12.4040    1.5820   -1.3530 C   0  0  0  0  0  2  0  0  0  0  0  0
   13.1840    0.4810   -2.0680 C   0  0  0  0  0  2  0  0  0  0  0  0
    8.6680   -4.6080   -0.0570 C   0  0  0  0  0  0  0  0  0  0  0  0
    8.1890   -5.1940    0.9600 O   0  0  0  0  0  1  0  0  0  0  0  0
    8.5630   -4.8900   -1.2880 O   0  0  0  0  0  0  0  0  0  0  0  0
  1  2  1  0  0  0  0
  2  3  1  0  0  0  0
  3  8  1  0  0  0  0
  4  5  1  0  0  0  0
  4  3  2  0  0  0  0
  5  6  2  0  0  0  0
  6  9  1  0  0  0  0
  6  7  1  0  0  0  0
  8  7  2  0  0  0  0
 10 16  1  0  0  0  0
 10  9  1  0  0  0  0
 11 10  2  0  0  0  0
 12 13  2  0  0  0  0
 12 11  1  0  0  0  0
 13 15  1  0  0  0  0
 14 13  1  0  0  0  0
 15 16  2  0  0  0  0
 16 17  1  0  0  0  0
 19 20  1  0  0  0  0
 19 18  2  0  0  0  0
 20  1  2  0  0  0  0
 21 20  1  0  0  0  0
 22 19  1  0  0  0  0
 23 22  1  0  0  0  0
 24 23  1  0  0  0  0
 24 25  1  0  0  0  0
 24 28  1  0  0  0  0
 25 26  1  0  0  0  0
 26 27  1  0  0  0  0
 28 27  1  0  0  0  0
 29  1  1  0  0  0  0
 29 30  1  0  0  0  0
 31 29  2  0  0  0  0
M  END
>  <minimizedAffinity>
-7.21673107

$$$$
