
 OpenBabel09132204463D

 30 32  0  0  0  0  0  0  0  0999 V2000
    5.7470   -5.3450    2.0430 C   0  0  0  0  0  0  0  0  0  0  0  0
    5.4850   -4.6480    3.1680 C   0  0  0  0  0  2  0  0  0  0  0  0
    4.2010   -4.4670    3.7500 C   0  0  0  0  0  0  0  0  0  0  0  0
    3.4500   -3.3150    3.9610 C   0  0  0  0  0  3  0  0  0  0  0  0
    2.2230   -3.6930    4.5570 C   0  0  0  0  0  3  0  0  0  0  0  0
    2.2550   -5.0640    4.6770 C   0  0  0  0  0  0  0  0  0  0  0  0
    3.4330   -5.5300    4.1730 O   0  0  0  0  0  0  0  0  0  0  0  0
    1.3340   -6.0720    5.1990 C   0  0  0  0  0  0  0  0  0  0  0  0
    1.7600   -7.0390    6.1200 C   0  0  0  0  0  3  0  0  0  0  0  0
    0.8760   -7.9980    6.6250 C   0  0  0  0  0  3  0  0  0  0  0  0
   -0.4620   -8.0190    6.2110 C   0  0  0  0  0  0  0  0  0  0  0  0
   -0.8980   -7.0500    5.2960 C   0  0  0  0  0  3  0  0  0  0  0  0
   -0.0090   -6.0920    4.7950 C   0  0  0  0  0  3  0  0  0  0  0  0
   -1.4280   -9.0340    6.7670 C   0  0  0  0  0  0  0  0  0  0  0  0
   -0.8370   -9.9610    7.5730 F   0  0  0  0  0  0  0  0  0  0  0  0
   -2.4110   -8.4630    7.5170 F   0  0  0  0  0  0  0  0  0  0  0  0
   -2.0700   -9.7460    5.7970 F   0  0  0  0  0  0  0  0  0  0  0  0
    4.7510   -5.8720    1.2300 N   0  0  0  0  0  4  0  0  0  0  0  0
    4.2580   -7.1520    1.1130 C   0  0  0  0  0  0  0  0  0  0  0  0
    3.5600   -7.4420    0.1370 O   0  0  0  0  0  0  0  0  0  0  0  0
    4.3920   -5.2640    0.5080 H   0  0  0  0  0  0  0  0  0  0  0  0
    4.4330   -8.1710    2.1700 C   0  0  0  0  0  0  0  0  0  0  0  0
    3.3410   -8.4760    2.9910 C   0  0  0  0  0  3  0  0  0  0  0  0
    3.4890   -9.3760    4.0480 C   0  0  0  0  0  3  0  0  0  0  0  0
    4.7320   -9.9610    4.2960 C   0  0  0  0  0  3  0  0  0  0  0  0
    5.8280   -9.6390    3.4940 C   0  0  0  0  0  3  0  0  0  0  0  0
    5.6850   -8.7340    2.4400 C   0  0  0  0  0  3  0  0  0  0  0  0
    7.6860   -6.4110    1.1440 O   0  0  0  0  0  0  0  0  0  0  0  0
    7.2710   -5.3530    1.7010 C   0  0  0  0  0  0  0  0  0  0  0  0
    7.9010   -4.3160    2.0540 O   0  0  0  0  0  1  0  0  0  0  0  0
  1  2  1  0  0  0  0
  2  3  1  0  0  0  0
  3  4  2  0  0  0  0
  3  7  1  0  0  0  0
  4  5  1  0  0  0  0
  5  6  2  0  0  0  0
  6  8  1  0  0  0  0
  7  6  1  0  0  0  0
  8  9  1  0  0  0  0
  9 10  2  0  0  0  0
 11 10  1  0  0  0  0
 11 14  1  0  0  0  0
 12 11  2  0  0  0  0
 13  8  2  0  0  0  0
 13 12  1  0  0  0  0
 14 16  1  0  0  0  0
 14 15  1  0  0  0  0
 17 14  1  0  0  0  0
 18  1  2  3  0  0  0
 19 18  1  0  0  0  0
 19 22  1  0  0  0  0
 20 19  2  0  0  0  0
 21 18  1  0  0  0  0
 22 27  2  0  0  0  0
 22 23  1  0  0  0  0
 23 24  2  0  0  0  0
 24 25  1  0  0  0  0
 26 25  2  0  0  0  0
 27 26  1  0  0  0  0
 28 29  2  0  0  0  0
 29  1  1  0  0  0  0
 29 30  1  0  0  0  0
M  END
>  <minimizedAffinity>
-6.28963566

$$$$
