
 OpenBabel09132204463D

 30 32  0  0  0  0  0  0  0  0999 V2000
    1.1830   -7.8820    5.8800 C   0  0  0  0  0  0  0  0  0  0  0  0
    1.3480   -8.3350    4.6200 C   0  0  0  0  0  2  0  0  0  0  0  0
    2.5880   -8.6950    4.0250 C   0  0  0  0  0  0  0  0  0  0  0  0
    3.2360   -9.9230    3.9410 C   0  0  0  0  0  3  0  0  0  0  0  0
    4.4390   -9.7380    3.2200 C   0  0  0  0  0  3  0  0  0  0  0  0
    4.4820   -8.4060    2.8710 C   0  0  0  0  0  0  0  0  0  0  0  0
    3.3610   -7.7860    3.3360 O   0  0  0  0  0  0  0  0  0  0  0  0
    5.4270   -7.5660    2.1380 C   0  0  0  0  0  0  0  0  0  0  0  0
    5.0240   -6.3550    1.5570 C   0  0  0  0  0  3  0  0  0  0  0  0
    5.9310   -5.5480    0.8620 C   0  0  0  0  0  3  0  0  0  0  0  0
    7.2690   -5.9390    0.7220 C   0  0  0  0  0  0  0  0  0  0  0  0
    7.6810   -7.1450    1.3070 C   0  0  0  0  0  3  0  0  0  0  0  0
    6.7700   -7.9480    2.0030 C   0  0  0  0  0  3  0  0  0  0  0  0
    8.2590   -5.0650   -0.0050 C   0  0  0  0  0  0  0  0  0  0  0  0
    8.3000   -3.7860    0.4630 F   0  0  0  0  0  0  0  0  0  0  0  0
    9.5340   -5.5350    0.0840 F   0  0  0  0  0  0  0  0  0  0  0  0
    7.9960   -4.9590   -1.3390 F   0  0  0  0  0  0  0  0  0  0  0  0
    2.2470   -7.5840    6.7220 N   0  0  0  0  0  4  0  0  0  0  0  0
    3.2840   -6.6870    6.5920 C   0  0  0  0  0  0  0  0  0  0  0  0
    4.2610   -6.7820    7.3400 O   0  0  0  0  0  0  0  0  0  0  0  0
    2.3770   -8.1950    7.5150 H   0  0  0  0  0  0  0  0  0  0  0  0
    3.2270   -5.5350    5.6660 C   0  0  0  0  0  0  0  0  0  0  0  0
    4.4090   -5.1240    5.0370 C   0  0  0  0  0  3  0  0  0  0  0  0
    4.4090   -3.9950    4.2170 C   0  0  0  0  0  3  0  0  0  0  0  0
    3.2340   -3.2650    4.0360 C   0  0  0  0  0  3  0  0  0  0  0  0
    2.0600   -3.6580    4.6820 C   0  0  0  0  0  3  0  0  0  0  0  0
    2.0570   -4.7830    5.5090 C   0  0  0  0  0  3  0  0  0  0  0  0
   -1.0860   -7.5670    5.2020 O   0  0  0  0  0  0  0  0  0  0  0  0
   -0.3170   -7.6010    6.2080 C   0  0  0  0  0  0  0  0  0  0  0  0
   -0.5670   -7.4100    7.4320 O   0  0  0  0  0  1  0  0  0  0  0  0
  1 29  1  0  0  0  0
  1 18  2  0  0  0  0
  2  1  1  0  0  0  0
  3  2  1  0  0  0  0
  4  3  2  0  0  0  0
  5  4  1  0  0  0  0
  6  5  2  0  0  0  0
  6  7  1  0  0  0  0
  7  3  1  0  0  0  0
  8  6  1  0  0  0  0
  9  8  2  0  0  0  0
 10  9  1  0  0  0  0
 11 10  2  0  0  0  0
 11 12  1  0  0  0  0
 12 13  2  0  0  0  0
 13  8  1  0  0  0  0
 14 16  1  0  0  0  0
 14 15  1  0  0  0  0
 14 11  1  0  0  0  0
 17 14  1  0  0  0  0
 18 21  1  0  0  0  0
 19 18  1  0  0  0  0
 19 20  2  0  0  0  0
 22 19  1  0  0  0  0
 23 22  2  0  0  0  0
 24 23  1  0  0  0  0
 25 24  2  0  0  0  0
 25 26  1  0  0  0  0
 26 27  2  0  0  0  0
 27 22  1  0  0  0  0
 28 29  2  0  0  0  0
 29 30  1  0  0  0  0
M  END
>  <minimizedAffinity>
-6.20587158

$$$$
