
 OpenBabel09132204463D

 30 32  0  0  0  0  0  0  0  0999 V2000
    2.4670   -6.2160    5.1760 C   0  0  0  0  0  0  0  0  0  0  0  0
    3.1540   -7.2610    4.6690 C   0  0  0  0  0  2  0  0  0  0  0  0
    3.8600   -7.2660    3.4350 C   0  0  0  0  0  0  0  0  0  0  0  0
    3.7030   -8.0530    2.2990 C   0  0  0  0  0  3  0  0  0  0  0  0
    4.6530   -7.6340    1.3380 C   0  0  0  0  0  3  0  0  0  0  0  0
    5.3510   -6.5930    1.9100 C   0  0  0  0  0  0  0  0  0  0  0  0
    4.8600   -6.3600    3.1600 O   0  0  0  0  0  0  0  0  0  0  0  0
    6.4460   -5.7280    1.4750 C   0  0  0  0  0  0  0  0  0  0  0  0
    7.0190   -5.8660    0.2020 C   0  0  0  0  0  3  0  0  0  0  0  0
    8.0620   -5.0340   -0.2160 C   0  0  0  0  0  3  0  0  0  0  0  0
    8.5680   -4.0440    0.6360 C   0  0  0  0  0  0  0  0  0  0  0  0
    7.9950   -3.8950    1.9070 C   0  0  0  0  0  3  0  0  0  0  0  0
    6.9500   -4.7300    2.3200 C   0  0  0  0  0  3  0  0  0  0  0  0
    9.6760   -3.1270    0.1850 C   0  0  0  0  0  0  0  0  0  0  0  0
    9.2350   -1.9080   -0.2360 F   0  0  0  0  0  0  0  0  0  0  0  0
   10.5800   -2.8750    1.1730 F   0  0  0  0  0  0  0  0  0  0  0  0
   10.3970   -3.6360   -0.8550 F   0  0  0  0  0  0  0  0  0  0  0  0
    2.2560   -5.0370    4.4730 N   0  0  0  0  0  4  0  0  0  0  0  0
    2.6280   -3.7390    4.7440 C   0  0  0  0  0  0  0  0  0  0  0  0
    2.1010   -2.8160    4.1150 O   0  0  0  0  0  0  0  0  0  0  0  0
    1.6230   -5.0890    3.6880 H   0  0  0  0  0  0  0  0  0  0  0  0
    3.7240   -3.4060    5.6800 C   0  0  0  0  0  0  0  0  0  0  0  0
    3.5930   -2.2660    6.4830 C   0  0  0  0  0  3  0  0  0  0  0  0
    4.6380   -1.8780    7.3220 C   0  0  0  0  0  3  0  0  0  0  0  0
    5.8210   -2.6170    7.3500 C   0  0  0  0  0  3  0  0  0  0  0  0
    5.9630   -3.7400    6.5330 C   0  0  0  0  0  3  0  0  0  0  0  0
    4.9220   -4.1280    5.6870 C   0  0  0  0  0  3  0  0  0  0  0  0
    0.6800   -7.0850    6.5020 O   0  0  0  0  0  0  0  0  0  0  0  0
    1.8280   -6.5530    6.5610 C   0  0  0  0  0  0  0  0  0  0  0  0
    2.5230   -6.2220    7.5620 O   0  0  0  0  0  1  0  0  0  0  0  0
  1 29  1  0  0  0  0
  2  1  1  0  0  0  0
  3  2  1  0  0  0  0
  4  3  2  0  0  0  0
  5  6  2  0  0  0  0
  5  4  1  0  0  0  0
  6  7  1  0  0  0  0
  7  3  1  0  0  0  0
  8  6  1  0  0  0  0
  8 13  1  0  0  0  0
  9  8  2  0  0  0  0
 10  9  1  0  0  0  0
 10 11  2  0  0  0  0
 11 12  1  0  0  0  0
 12 13  2  0  0  0  0
 14 11  1  0  0  0  0
 14 16  1  0  0  0  0
 15 14  1  0  0  0  0
 17 14  1  0  0  0  0
 18 19  1  0  0  0  0
 18  1  2  0  0  0  0
 19 22  1  0  0  0  0
 20 19  2  0  0  0  0
 21 18  1  0  0  0  0
 22 27  2  0  0  0  0
 22 23  1  0  0  0  0
 23 24  2  0  0  0  0
 24 25  1  0  0  0  0
 26 25  2  0  0  0  0
 27 26  1  0  0  0  0
 28 29  2  0  0  0  0
 29 30  1  0  0  0  0
M  END
>  <minimizedAffinity>
-6.48033333

$$$$
