
 OpenBabel09132204463D

 30 32  0  0  0  0  0  0  0  0999 V2000
    9.5420   -0.8090    3.1450 C   0  0  0  0  0  0  0  0  0  0  0  0
    9.0130   -1.0870    1.9360 C   0  0  0  0  0  2  0  0  0  0  0  0
    8.8830   -2.3840    1.3670 C   0  0  0  0  0  0  0  0  0  0  0  0
    9.5790   -2.9980    0.3320 C   0  0  0  0  0  3  0  0  0  0  0  0
    9.0700   -4.3090    0.1760 C   0  0  0  0  0  3  0  0  0  0  0  0
    8.0910   -4.4610    1.1320 C   0  0  0  0  0  0  0  0  0  0  0  0
    7.9940   -3.3130    1.8600 O   0  0  0  0  0  0  0  0  0  0  0  0
    7.1860   -5.5450    1.5120 C   0  0  0  0  0  0  0  0  0  0  0  0
    5.9310   -5.2790    2.0780 C   0  0  0  0  0  3  0  0  0  0  0  0
    5.0630   -6.3160    2.4350 C   0  0  0  0  0  3  0  0  0  0  0  0
    5.4340   -7.6530    2.2420 C   0  0  0  0  0  0  0  0  0  0  0  0
    6.6840   -7.9260    1.6690 C   0  0  0  0  0  3  0  0  0  0  0  0
    7.5480   -6.8850    1.3120 C   0  0  0  0  0  3  0  0  0  0  0  0
    4.4950   -8.7760    2.6010 C   0  0  0  0  0  0  0  0  0  0  0  0
    4.9900   -9.6130    3.5560 F   0  0  0  0  0  0  0  0  0  0  0  0
    3.3030   -8.3250    3.0830 F   0  0  0  0  0  0  0  0  0  0  0  0
    4.1870   -9.5720    1.5380 F   0  0  0  0  0  0  0  0  0  0  0  0
   10.1550   -1.7680    3.9420 N   0  0  0  0  0  4  0  0  0  0  0  0
    9.7830   -2.3210    5.1470 C   0  0  0  0  0  0  0  0  0  0  0  0
   10.6140   -2.9580    5.8000 O   0  0  0  0  0  0  0  0  0  0  0  0
   11.0920   -2.0370    3.6790 H   0  0  0  0  0  0  0  0  0  0  0  0
    8.3890   -2.2830    5.6420 C   0  0  0  0  0  0  0  0  0  0  0  0
    8.0830   -1.4300    6.7100 C   0  0  0  0  0  3  0  0  0  0  0  0
    6.7980   -1.4240    7.2540 C   0  0  0  0  0  3  0  0  0  0  0  0
    5.8210   -2.2790    6.7430 C   0  0  0  0  0  3  0  0  0  0  0  0
    6.1300   -3.1470    5.6950 C   0  0  0  0  0  3  0  0  0  0  0  0
    7.4170   -3.1620    5.1520 C   0  0  0  0  0  3  0  0  0  0  0  0
    9.1360    1.4550    2.4990 O   0  0  0  0  0  0  0  0  0  0  0  0
    9.5100    0.7200    3.4600 C   0  0  0  0  0  0  0  0  0  0  0  0
    9.8930    1.0320    4.6230 O   0  0  0  0  0  1  0  0  0  0  0  0
  1 29  1  0  0  0  0
  1 18  2  0  0  0  0
  2  1  1  0  0  0  0
  3  7  1  0  0  0  0
  3  2  1  0  0  0  0
  4  3  2  0  0  0  0
  5  4  1  0  0  0  0
  5  6  2  0  0  0  0
  6  8  1  0  0  0  0
  6  7  1  0  0  0  0
  8  9  1  0  0  0  0
  9 10  2  0  0  0  0
 11 10  1  0  0  0  0
 11 14  1  0  0  0  0
 12 11  2  0  0  0  0
 13  8  2  0  0  0  0
 13 12  1  0  0  0  0
 14 16  1  0  0  0  0
 14 15  1  0  0  0  0
 17 14  1  0  0  0  0
 18 19  1  0  0  0  0
 19 22  1  0  0  0  0
 19 20  2  0  0  0  0
 21 18  1  0  0  0  0
 22 23  1  0  0  0  0
 23 24  2  0  0  0  0
 25 24  1  0  0  0  0
 26 25  2  0  0  0  0
 27 22  2  0  0  0  0
 27 26  1  0  0  0  0
 28 29  2  0  0  0  0
 29 30  1  0  0  0  0
M  END
>  <minimizedAffinity>
-6.74887991

$$$$
