
 OpenBabel09132204463D

 30 32  0  0  0  0  0  0  0  0999 V2000
    3.0450   -6.5300    5.5510 C   0  0  0  0  0  0  0  0  0  0  0  0
    2.8680   -7.0660    4.3260 C   0  0  0  0  0  2  0  0  0  0  0  0
    3.8610   -7.1590    3.3120 C   0  0  0  0  0  0  0  0  0  0  0  0
    4.1040   -8.1470    2.3630 C   0  0  0  0  0  3  0  0  0  0  0  0
    5.2040   -7.7370    1.5730 C   0  0  0  0  0  3  0  0  0  0  0  0
    5.5880   -6.5040    2.0520 C   0  0  0  0  0  0  0  0  0  0  0  0
    4.7690   -6.1490    3.0810 O   0  0  0  0  0  0  0  0  0  0  0  0
    6.6340   -5.5450    1.6990 C   0  0  0  0  0  0  0  0  0  0  0  0
    6.9140   -4.4410    2.5170 C   0  0  0  0  0  3  0  0  0  0  0  0
    7.9190   -3.5280    2.1820 C   0  0  0  0  0  3  0  0  0  0  0  0
    8.6680   -3.6930    1.0100 C   0  0  0  0  0  0  0  0  0  0  0  0
    8.3990   -4.7990    0.1920 C   0  0  0  0  0  3  0  0  0  0  0  0
    7.3930   -5.7100    0.5320 C   0  0  0  0  0  3  0  0  0  0  0  0
    9.7690   -2.7270    0.6540 C   0  0  0  0  0  0  0  0  0  0  0  0
    9.3140   -1.5040    0.2610 F   0  0  0  0  0  0  0  0  0  0  0  0
   10.6140   -2.4920    1.6960 F   0  0  0  0  0  0  0  0  0  0  0  0
   10.5570   -3.1720   -0.3680 F   0  0  0  0  0  0  0  0  0  0  0  0
    4.2100   -5.8740    5.9290 N   0  0  0  0  0  4  0  0  0  0  0  0
    4.5850   -4.5540    5.8200 C   0  0  0  0  0  0  0  0  0  0  0  0
    5.7700   -4.2480    5.9780 O   0  0  0  0  0  0  0  0  0  0  0  0
    4.9780   -6.4580    6.2270 H   0  0  0  0  0  0  0  0  0  0  0  0
    3.6040   -3.4620    5.6340 C   0  0  0  0  0  0  0  0  0  0  0  0
    3.2270   -2.7060    6.7500 C   0  0  0  0  0  3  0  0  0  0  0  0
    2.2480   -1.7190    6.6290 C   0  0  0  0  0  3  0  0  0  0  0  0
    1.6320   -1.4960    5.3960 C   0  0  0  0  0  3  0  0  0  0  0  0
    1.9880   -2.2660    4.2880 C   0  0  0  0  0  3  0  0  0  0  0  0
    2.9630   -3.2590    4.4070 C   0  0  0  0  0  3  0  0  0  0  0  0
    0.8110   -7.2950    5.9110 O   0  0  0  0  0  0  0  0  0  0  0  0
    1.7480   -6.6100    6.4170 C   0  0  0  0  0  0  0  0  0  0  0  0
    1.7880   -5.9540    7.4960 O   0  0  0  0  0  1  0  0  0  0  0  0
  1 18  2  3  0  0  0
  1 29  1  0  0  0  0
  2  1  1  0  0  0  0
  3  2  1  0  0  0  0
  4  3  2  0  0  0  0
  5  6  2  0  0  0  0
  5  4  1  0  0  0  0
  6  7  1  0  0  0  0
  7  3  1  0  0  0  0
  8  6  1  0  0  0  0
  8  9  1  0  0  0  0
 10  9  2  0  0  0  0
 11 10  1  0  0  0  0
 12 13  1  0  0  0  0
 12 11  2  0  0  0  0
 13  8  2  0  0  0  0
 14 11  1  0  0  0  0
 14 16  1  0  0  0  0
 15 14  1  0  0  0  0
 17 14  1  0  0  0  0
 18 21  1  0  0  0  0
 19 18  1  0  0  0  0
 19 20  2  0  0  0  0
 22 19  1  0  0  0  0
 22 23  1  0  0  0  0
 24 23  2  0  0  0  0
 25 24  1  0  0  0  0
 26 27  1  0  0  0  0
 26 25  2  0  0  0  0
 27 22  2  0  0  0  0
 28 29  2  0  0  0  0
 29 30  1  0  0  0  0
M  END
>  <minimizedAffinity>
-6.73814917

$$$$
