
 OpenBabel09132204463D

 30 32  0  0  0  0  0  0  0  0999 V2000
    5.8000   -6.1080    0.2440 C   0  0  0  0  0  0  0  0  0  0  0  0
    6.8940   -5.8150   -0.4900 C   0  0  0  0  0  2  0  0  0  0  0  0
    7.9180   -4.9010   -0.1200 C   0  0  0  0  0  0  0  0  0  0  0  0
    9.0130   -4.4240   -0.8330 C   0  0  0  0  0  3  0  0  0  0  0  0
    9.7110   -3.5100   -0.0080 C   0  0  0  0  0  3  0  0  0  0  0  0
    9.0110   -3.4440    1.1770 C   0  0  0  0  0  0  0  0  0  0  0  0
    7.9240   -4.2630    1.1010 O   0  0  0  0  0  0  0  0  0  0  0  0
    9.1810   -2.7120    2.4310 C   0  0  0  0  0  0  0  0  0  0  0  0
    9.3850   -1.3250    2.4400 C   0  0  0  0  0  3  0  0  0  0  0  0
    9.5410   -0.6240    3.6400 C   0  0  0  0  0  3  0  0  0  0  0  0
    9.5040   -1.2980    4.8680 C   0  0  0  0  0  0  0  0  0  0  0  0
    9.2910   -2.6830    4.8660 C   0  0  0  0  0  3  0  0  0  0  0  0
    9.1360   -3.3800    3.6620 C   0  0  0  0  0  3  0  0  0  0  0  0
    9.6460   -0.5470    6.1670 C   0  0  0  0  0  0  0  0  0  0  0  0
   10.6090   -1.0560    6.9860 F   0  0  0  0  0  0  0  0  0  0  0  0
    9.9710    0.7620    5.9800 F   0  0  0  0  0  0  0  0  0  0  0  0
    8.5000   -0.5420    6.9060 F   0  0  0  0  0  0  0  0  0  0  0  0
    5.4730   -5.4360    1.4150 N   0  0  0  0  0  4  0  0  0  0  0  0
    4.9100   -5.8810    2.5900 C   0  0  0  0  0  0  0  0  0  0  0  0
    4.4640   -5.0580    3.3950 O   0  0  0  0  0  0  0  0  0  0  0  0
    5.5360   -4.4290    1.3880 H   0  0  0  0  0  0  0  0  0  0  0  0
    4.9200   -7.3060    2.9860 C   0  0  0  0  0  0  0  0  0  0  0  0
    3.8670   -7.7880    3.7740 C   0  0  0  0  0  3  0  0  0  0  0  0
    3.8810   -9.1070    4.2310 C   0  0  0  0  0  3  0  0  0  0  0  0
    4.9540   -9.9420    3.9140 C   0  0  0  0  0  3  0  0  0  0  0  0
    6.0160   -9.4570    3.1500 C   0  0  0  0  0  3  0  0  0  0  0  0
    6.0090   -8.1360    2.6970 C   0  0  0  0  0  3  0  0  0  0  0  0
    5.5180   -8.0930   -1.0540 O   0  0  0  0  0  0  0  0  0  0  0  0
    4.8930   -7.1690   -0.4560 C   0  0  0  0  0  0  0  0  0  0  0  0
    3.6520   -6.9510   -0.3640 O   0  0  0  0  0  1  0  0  0  0  0  0
  1 18  2  0  0  0  0
  2  3  1  0  0  0  0
  2  1  1  0  0  0  0
  3  7  1  0  0  0  0
  4  3  2  0  0  0  0
  4  5  1  0  0  0  0
  5  6  2  0  0  0  0
  6  8  1  0  0  0  0
  7  6  1  0  0  0  0
  8  9  2  0  0  0  0
  8 13  1  0  0  0  0
  9 10  1  0  0  0  0
 10 11  2  0  0  0  0
 11 14  1  0  0  0  0
 12 11  1  0  0  0  0
 13 12  2  0  0  0  0
 14 17  1  0  0  0  0
 14 15  1  0  0  0  0
 16 14  1  0  0  0  0
 18 19  1  0  0  0  0
 19 22  1  0  0  0  0
 19 20  2  0  0  0  0
 21 18  1  0  0  0  0
 22 23  1  0  0  0  0
 23 24  2  0  0  0  0
 25 24  1  0  0  0  0
 26 25  2  0  0  0  0
 27 22  2  0  0  0  0
 27 26  1  0  0  0  0
 28 29  2  0  0  0  0
 29 30  1  0  0  0  0
 29  1  1  0  0  0  0
M  END
>  <minimizedAffinity>
-6.62747002

$$$$
