
 OpenBabel09132204463D

 30 32  0  0  0  0  0  0  0  0999 V2000
    6.2170   -7.0250    0.2000 C   0  0  0  0  0  0  0  0  0  0  0  0
    6.4110   -5.7200   -0.0810 C   0  0  0  0  0  2  0  0  0  0  0  0
    7.5120   -4.9350    0.3570 C   0  0  0  0  0  0  0  0  0  0  0  0
    8.7130   -4.6190   -0.2690 C   0  0  0  0  0  3  0  0  0  0  0  0
    9.4550   -3.7810    0.5970 C   0  0  0  0  0  3  0  0  0  0  0  0
    8.6770   -3.5950    1.7180 C   0  0  0  0  0  0  0  0  0  0  0  0
    7.5030   -4.2710    1.5650 O   0  0  0  0  0  0  0  0  0  0  0  0
    8.8380   -2.8580    2.9700 C   0  0  0  0  0  0  0  0  0  0  0  0
    8.2780   -3.3270    4.1670 C   0  0  0  0  0  3  0  0  0  0  0  0
    8.4390   -2.6240    5.3650 C   0  0  0  0  0  3  0  0  0  0  0  0
    9.1600   -1.4240    5.3950 C   0  0  0  0  0  0  0  0  0  0  0  0
    9.7300   -0.9540    4.2040 C   0  0  0  0  0  3  0  0  0  0  0  0
    9.5670   -1.6610    3.0070 C   0  0  0  0  0  3  0  0  0  0  0  0
    9.3590   -0.6730    6.6870 C   0  0  0  0  0  0  0  0  0  0  0  0
    8.2430   -0.6310    7.4680 F   0  0  0  0  0  0  0  0  0  0  0  0
   10.3370   -1.2190    7.4630 F   0  0  0  0  0  0  0  0  0  0  0  0
    9.7230    0.6280    6.4950 F   0  0  0  0  0  0  0  0  0  0  0  0
    7.0210   -7.7380    1.0790 N   0  0  0  0  0  4  0  0  0  0  0  0
    6.7670   -8.2480    2.3330 C   0  0  0  0  0  0  0  0  0  0  0  0
    7.7120   -8.6120    3.0390 O   0  0  0  0  0  0  0  0  0  0  0  0
    8.0000   -7.8060    0.8380 H   0  0  0  0  0  0  0  0  0  0  0  0
    5.3950   -8.4880    2.8300 C   0  0  0  0  0  0  0  0  0  0  0  0
    4.7960   -9.7260    2.5670 C   0  0  0  0  0  3  0  0  0  0  0  0
    3.4750   -9.9600    2.9530 C   0  0  0  0  0  3  0  0  0  0  0  0
    2.7460   -8.9540    3.5880 C   0  0  0  0  0  3  0  0  0  0  0  0
    3.3330   -7.7110    3.8300 C   0  0  0  0  0  3  0  0  0  0  0  0
    4.6520   -7.4700    3.4390 C   0  0  0  0  0  3  0  0  0  0  0  0
    3.8700   -6.8960   -0.2290 O   0  0  0  0  0  1  0  0  0  0  0  0
    4.9120   -7.5770   -0.4590 C   0  0  0  0  0  0  0  0  0  0  0  0
    5.0580   -8.6500   -1.1100 O   0  0  0  0  0  0  0  0  0  0  0  0
  1 18  2  0  0  0  0
  2  1  1  0  0  0  0
  2  3  1  0  0  0  0
  3  7  1  0  0  0  0
  4  3  2  0  0  0  0
  4  5  1  0  0  0  0
  5  6  2  0  0  0  0
  6  8  1  0  0  0  0
  7  6  1  0  0  0  0
  8 13  2  0  0  0  0
  8  9  1  0  0  0  0
  9 10  2  0  0  0  0
 10 11  1  0  0  0  0
 11 14  1  0  0  0  0
 12 11  2  0  0  0  0
 13 12  1  0  0  0  0
 14 16  1  0  0  0  0
 14 15  1  0  0  0  0
 17 14  1  0  0  0  0
 18 19  1  0  0  0  0
 19 22  1  0  0  0  0
 19 20  2  0  0  0  0
 21 18  1  0  0  0  0
 22 27  1  0  0  0  0
 23 22  2  0  0  0  0
 23 24  1  0  0  0  0
 24 25  2  0  0  0  0
 25 26  1  0  0  0  0
 27 26  2  0  0  0  0
 29 28  1  0  0  0  0
 29  1  1  0  0  0  0
 30 29  2  0  0  0  0
M  END
>  <minimizedAffinity>
-5.8705616

$$$$
