
 OpenBabel09132204463D

 28 30  0  0  0  0  0  0  0  0999 V2000
    9.2930   -1.5420    4.6780 C   0  0  0  0  0  2  0  0  0  0  0  0
    9.8860   -0.4480    5.1970 C   0  0  0  0  0  0  0  0  0  0  0  0
    9.6230   -1.7400    1.0920 C   0  0  0  0  0  0  0  0  0  0  0  0
    8.9550   -2.9240    1.3020 C   0  0  0  0  0  3  0  0  0  0  0  0
    8.7460   -3.0220    2.6980 C   0  0  0  0  0  3  0  0  0  0  0  0
    9.2860   -1.8890    3.2960 C   0  0  0  0  0  0  0  0  0  0  0  0
    9.8270   -1.1190    2.2880 O   0  0  0  0  0  0  0  0  0  0  0  0
   10.6950   -1.7000   -1.1780 C   0  0  0  0  0  0  0  0  0  0  0  0
   11.2280   -0.9900   -2.2610 C   0  0  0  0  0  3  0  0  0  0  0  0
   11.1530    0.4010   -2.2860 C   0  0  0  0  0  3  0  0  0  0  0  0
   10.5560    1.0810   -1.2270 C   0  0  0  0  0  3  0  0  0  0  0  0
   10.0490    0.3700   -0.1350 C   0  0  0  0  0  3  0  0  0  0  0  0
   10.1240   -1.0330   -0.0820 C   0  0  0  0  0  0  0  0  0  0  0  0
   12.0840   -3.4470   -1.7030 C   0  0  0  0  0  1  0  0  0  0  0  0
   10.7880   -3.0710   -1.2280 O   0  0  0  0  0  0  0  0  0  0  0  0
   10.5450    0.4850    4.4070 N   0  0  0  0  0  4  0  0  0  0  0  0
   10.7010    1.8460    4.5260 C   0  0  0  0  0  0  0  0  0  0  0  0
   11.1400    2.4970    3.5730 O   0  0  0  0  0  0  0  0  0  0  0  0
   10.9360    0.1230    3.5440 H   0  0  0  0  0  0  0  0  0  0  0  0
   10.4470    2.5650    5.7910 C   0  0  0  0  0  0  0  0  0  0  0  0
    9.2470    3.2730    5.9290 C   0  0  0  0  0  3  0  0  0  0  0  0
    9.0100    4.0260    7.0800 C   0  0  0  0  0  3  0  0  0  0  0  0
    9.9770    4.0870    8.0830 C   0  0  0  0  0  3  0  0  0  0  0  0
   11.1850    3.4030    7.9340 C   0  0  0  0  0  3  0  0  0  0  0  0
   11.4280    2.6530    6.7830 C   0  0  0  0  0  3  0  0  0  0  0  0
    9.6380   -0.3310    6.7290 C   0  0  0  0  0  0  0  0  0  0  0  0
   10.6280   -0.6460    7.4550 O   0  0  0  0  0  1  0  0  0  0  0  0
    8.4650    0.0040    7.0570 O   0  0  0  0  0  0  0  0  0  0  0  0
  1  2  1  0  0  0  0
  2 26  1  0  0  0  0
  3  4  2  0  0  0  0
  3  7  1  0  0  0  0
  4  5  1  0  0  0  0
  5  6  2  0  0  0  0
  6  1  1  0  0  0  0
  7  6  1  0  0  0  0
  8 13  1  0  0  0  0
  9  8  2  0  0  0  0
 10  9  1  0  0  0  0
 10 11  2  0  0  0  0
 11 12  1  0  0  0  0
 12 13  2  0  0  0  0
 13  3  1  0  0  0  0
 14 15  1  0  0  0  0
 15  8  1  0  0  0  0
 16 17  1  0  0  0  0
 16  2  2  0  0  0  0
 17 20  1  0  0  0  0
 18 17  2  0  0  0  0
 19 16  1  0  0  0  0
 20 21  2  0  0  0  0
 20 25  1  0  0  0  0
 21 22  1  0  0  0  0
 22 23  2  0  0  0  0
 24 23  1  0  0  0  0
 25 24  2  0  0  0  0
 26 28  2  0  0  0  0
 26 27  1  0  0  0  0
M  END
>  <minimizedAffinity>
-6.18584251

$$$$
