
 OpenBabel09132204463D

 28 30  0  0  0  0  0  0  0  0999 V2000
   10.7700    1.7460   -0.8260 C   0  0  0  0  0  2  0  0  0  0  0  0
   10.2260    2.4410    0.1940 C   0  0  0  0  0  0  0  0  0  0  0  0
   10.3290   -1.8220   -0.5450 C   0  0  0  0  0  0  0  0  0  0  0  0
   11.4350   -1.8160   -1.3630 C   0  0  0  0  0  3  0  0  0  0  0  0
   11.7510   -0.4560   -1.5960 C   0  0  0  0  0  3  0  0  0  0  0  0
   10.8330    0.3250   -0.9050 C   0  0  0  0  0  0  0  0  0  0  0  0
    9.9630   -0.5380   -0.2730 O   0  0  0  0  0  0  0  0  0  0  0  0
    9.1430   -2.8230    1.4290 C   0  0  0  0  0  0  0  0  0  0  0  0
    8.4140   -3.8670    2.0100 C   0  0  0  0  0  3  0  0  0  0  0  0
    7.9970   -4.9440    1.2300 C   0  0  0  0  0  3  0  0  0  0  0  0
    8.3180   -4.9810   -0.1240 C   0  0  0  0  0  3  0  0  0  0  0  0
    9.0700   -3.9500   -0.6960 C   0  0  0  0  0  3  0  0  0  0  0  0
    9.5110   -2.8590    0.0740 C   0  0  0  0  0  0  0  0  0  0  0  0
    9.9540   -2.3030    3.5100 C   0  0  0  0  0  1  0  0  0  0  0  0
    9.5060   -1.7840    2.2540 O   0  0  0  0  0  0  0  0  0  0  0  0
    9.6820    1.8170    1.3100 N   0  0  0  0  0  4  0  0  0  0  0  0
    9.9500    1.9370    2.6530 C   0  0  0  0  0  0  0  0  0  0  0  0
    9.4900    1.1080    3.4450 O   0  0  0  0  0  0  0  0  0  0  0  0
    9.0040    1.0900    1.1120 H   0  0  0  0  0  0  0  0  0  0  0  0
   10.7000    3.0790    3.2120 C   0  0  0  0  0  0  0  0  0  0  0  0
   11.8890    2.8230    3.9080 C   0  0  0  0  0  3  0  0  0  0  0  0
   12.5810    3.8720    4.5150 C   0  0  0  0  0  3  0  0  0  0  0  0
   12.0790    5.1710    4.4440 C   0  0  0  0  0  3  0  0  0  0  0  0
   10.8800    5.4230    3.7750 C   0  0  0  0  0  3  0  0  0  0  0  0
   10.1820    4.3760    3.1700 C   0  0  0  0  0  3  0  0  0  0  0  0
   10.3910    3.9760   -0.0020 C   0  0  0  0  0  0  0  0  0  0  0  0
   11.5900    4.3870   -0.0120 O   0  0  0  0  0  1  0  0  0  0  0  0
    9.3090    4.6260   -0.0650 O   0  0  0  0  0  0  0  0  0  0  0  0
  1  2  1  0  0  0  0
  2 16  2  0  0  0  0
  3  7  1  0  0  0  0
  3 13  1  0  0  0  0
  4  3  2  0  0  0  0
  5  4  1  0  0  0  0
  5  6  2  0  0  0  0
  6  1  1  0  0  0  0
  6  7  1  0  0  0  0
  8  9  1  0  0  0  0
  8 15  1  0  0  0  0
 10  9  2  0  0  0  0
 11 10  1  0  0  0  0
 12 11  2  0  0  0  0
 12 13  1  0  0  0  0
 13  8  2  0  0  0  0
 15 14  1  0  0  0  0
 16 17  1  0  0  0  0
 17 20  1  0  0  0  0
 17 18  2  0  0  0  0
 19 16  1  0  0  0  0
 20 21  1  0  0  0  0
 21 22  2  0  0  0  0
 23 22  1  0  0  0  0
 24 23  2  0  0  0  0
 25 20  2  0  0  0  0
 25 24  1  0  0  0  0
 26  2  1  0  0  0  0
 27 26  1  0  0  0  0
 28 26  2  0  0  0  0
M  END
>  <minimizedAffinity>
-6.09028864

$$$$
