
 OpenBabel09132204463D

 28 30  0  0  0  0  0  0  0  0999 V2000
    9.8210    1.4710    4.0060 C   0  0  0  0  0  2  0  0  0  0  0  0
   10.3680    0.9620    5.1290 C   0  0  0  0  0  0  0  0  0  0  0  0
    9.3610   -0.9150    1.3410 C   0  0  0  0  0  0  0  0  0  0  0  0
    9.6270    0.1980    0.5760 C   0  0  0  0  0  3  0  0  0  0  0  0
    9.8270    1.2660    1.4830 C   0  0  0  0  0  3  0  0  0  0  0  0
    9.6850    0.7690    2.7730 C   0  0  0  0  0  0  0  0  0  0  0  0
    9.3910   -0.5730    2.6590 O   0  0  0  0  0  0  0  0  0  0  0  0
    9.5360   -2.9580   -0.1080 C   0  0  0  0  0  0  0  0  0  0  0  0
    9.1940   -4.2870   -0.3850 C   0  0  0  0  0  3  0  0  0  0  0  0
    8.4280   -5.0140    0.5240 C   0  0  0  0  0  3  0  0  0  0  0  0
    7.9970   -4.4090    1.7030 C   0  0  0  0  0  3  0  0  0  0  0  0
    8.3180   -3.0740    1.9640 C   0  0  0  0  0  3  0  0  0  0  0  0
    9.0800   -2.3180    1.0560 C   0  0  0  0  0  0  0  0  0  0  0  0
   11.5910   -2.9380   -1.1250 C   0  0  0  0  0  1  0  0  0  0  0  0
   10.3090   -2.3070   -1.0410 O   0  0  0  0  0  0  0  0  0  0  0  0
   10.8900   -0.3240    5.1840 N   0  0  0  0  0  4  0  0  0  0  0  0
   10.4130   -1.4870    5.7400 C   0  0  0  0  0  0  0  0  0  0  0  0
   11.1630   -2.4610    5.8590 O   0  0  0  0  0  0  0  0  0  0  0  0
   11.8240   -0.4290    4.8040 H   0  0  0  0  0  0  0  0  0  0  0  0
    8.9980   -1.6590    6.1260 C   0  0  0  0  0  0  0  0  0  0  0  0
    8.4850   -0.8660    7.1610 C   0  0  0  0  0  3  0  0  0  0  0  0
    7.1750   -1.0570    7.6010 C   0  0  0  0  0  3  0  0  0  0  0  0
    6.3830   -2.0500    7.0240 C   0  0  0  0  0  3  0  0  0  0  0  0
    6.9030   -2.8580    6.0110 C   0  0  0  0  0  3  0  0  0  0  0  0
    8.2140   -2.6740    5.5700 C   0  0  0  0  0  3  0  0  0  0  0  0
   10.4280    2.0190    6.2700 C   0  0  0  0  0  0  0  0  0  0  0  0
    9.3430    2.6380    6.4820 O   0  0  0  0  0  0  0  0  0  0  0  0
   11.5660    2.1700    6.7990 O   0  0  0  0  0  1  0  0  0  0  0  0
  1  2  1  0  0  0  0
  2 16  2  0  0  0  0
  2 26  1  0  0  0  0
  3  7  1  0  0  0  0
  4  3  2  0  0  0  0
  4  5  1  0  0  0  0
  5  6  2  0  0  0  0
  6  1  1  0  0  0  0
  7  6  1  0  0  0  0
  8 13  1  0  0  0  0
  9  8  2  0  0  0  0
  9 10  1  0  0  0  0
 10 11  2  0  0  0  0
 11 12  1  0  0  0  0
 13  3  1  0  0  0  0
 13 12  2  0  0  0  0
 14 15  1  0  0  0  0
 15  8  1  0  0  0  0
 16 17  1  0  0  0  0
 17 18  2  0  0  0  0
 17 20  1  0  0  0  0
 19 16  1  0  0  0  0
 20 21  1  0  0  0  0
 21 22  2  0  0  0  0
 23 22  1  0  0  0  0
 24 23  2  0  0  0  0
 25 24  1  0  0  0  0
 25 20  2  0  0  0  0
 26 27  2  0  0  0  0
 26 28  1  0  0  0  0
M  END
>  <minimizedAffinity>
-6.52597618

$$$$
