
 OpenBabel09132204463D

 28 30  0  0  0  0  0  0  0  0999 V2000
   10.1360    7.1880    1.8660 C   0  0  0  0  0  2  0  0  0  0  0  0
    9.2570    7.8040    1.0500 C   0  0  0  0  0  0  0  0  0  0  0  0
   11.2180    3.8530    1.0200 C   0  0  0  0  0  0  0  0  0  0  0  0
   12.4540    4.4370    1.1710 C   0  0  0  0  0  3  0  0  0  0  0  0
   12.2170    5.7930    1.5020 C   0  0  0  0  0  3  0  0  0  0  0  0
   10.8420    5.9900    1.5510 C   0  0  0  0  0  0  0  0  0  0  0  0
   10.2490    4.7850    1.2430 O   0  0  0  0  0  0  0  0  0  0  0  0
   11.1950    1.7990   -0.4250 C   0  0  0  0  0  0  0  0  0  0  0  0
   10.6720    0.5400   -0.7410 C   0  0  0  0  0  3  0  0  0  0  0  0
    9.7240   -0.0510    0.0920 C   0  0  0  0  0  3  0  0  0  0  0  0
    9.2920    0.6210    1.2330 C   0  0  0  0  0  3  0  0  0  0  0  0
    9.7970    1.8900    1.5320 C   0  0  0  0  0  3  0  0  0  0  0  0
   10.7450    2.5110    0.7000 C   0  0  0  0  0  0  0  0  0  0  0  0
   12.1150    1.5880   -2.5140 C   0  0  0  0  0  1  0  0  0  0  0  0
   12.1390    2.3140   -1.2810 O   0  0  0  0  0  0  0  0  0  0  0  0
    8.9270    7.3010   -0.2020 N   0  0  0  0  0  4  0  0  0  0  0  0
    9.2170    7.7350   -1.4730 C   0  0  0  0  0  0  0  0  0  0  0  0
    8.6200    7.2460   -2.4380 O   0  0  0  0  0  0  0  0  0  0  0  0
    8.3040    6.5000   -0.1970 H   0  0  0  0  0  0  0  0  0  0  0  0
   10.2880    8.7120   -1.7520 C   0  0  0  0  0  0  0  0  0  0  0  0
   10.0490    9.7160   -2.6980 C   0  0  0  0  0  3  0  0  0  0  0  0
   11.0670   10.6080   -3.0410 C   0  0  0  0  0  3  0  0  0  0  0  0
   12.3270   10.4860   -2.4550 C   0  0  0  0  0  3  0  0  0  0  0  0
   12.5740    9.4680   -1.5320 C   0  0  0  0  0  3  0  0  0  0  0  0
   11.5610    8.5710   -1.1900 C   0  0  0  0  0  3  0  0  0  0  0  0
    8.6110    9.0450    1.7320 C   0  0  0  0  0  0  0  0  0  0  0  0
    8.2870    8.8780    2.9460 O   0  0  0  0  0  1  0  0  0  0  0  0
    8.4350   10.0400    0.9740 O   0  0  0  0  0  0  0  0  0  0  0  0
  2 26  1  0  0  0  0
  2  1  1  0  0  0  0
  3  4  2  0  0  0  0
  3  7  1  0  0  0  0
  4  5  1  0  0  0  0
  5  6  2  0  0  0  0
  6  1  1  0  0  0  0
  7  6  1  0  0  0  0
  8 13  1  0  0  0  0
  9  8  2  0  0  0  0
  9 10  1  0  0  0  0
 10 11  2  0  0  0  0
 11 12  1  0  0  0  0
 13  3  1  0  0  0  0
 13 12  2  0  0  0  0
 14 15  1  0  0  0  0
 15  8  1  0  0  0  0
 16 19  1  0  0  0  0
 16  2  2  0  0  0  0
 17 16  1  0  0  0  0
 18 17  2  0  0  0  0
 20 17  1  0  0  0  0
 20 25  1  0  0  0  0
 21 20  2  0  0  0  0
 22 21  1  0  0  0  0
 22 23  2  0  0  0  0
 23 24  1  0  0  0  0
 24 25  2  0  0  0  0
 26 27  1  0  0  0  0
 28 26  2  0  0  0  0
M  END
>  <minimizedAffinity>
-6.16418791

$$$$
