
 OpenBabel09132204463D

 28 30  0  0  0  0  0  0  0  0999 V2000
   10.1350    2.8980    2.9690 C   0  0  0  0  0  2  0  0  0  0  0  0
   11.0850    3.8140    2.6930 C   0  0  0  0  0  0  0  0  0  0  0  0
    9.9980    0.2500    0.5240 C   0  0  0  0  0  0  0  0  0  0  0  0
    9.0130   -0.2020    1.3720 C   0  0  0  0  0  3  0  0  0  0  0  0
    8.9350    0.7350    2.4290 C   0  0  0  0  0  3  0  0  0  0  0  0
    9.8700    1.7360    2.1880 C   0  0  0  0  0  0  0  0  0  0  0  0
   10.5160    1.4110    1.0150 O   0  0  0  0  0  0  0  0  0  0  0  0
   11.0200   -1.5350   -0.9160 C   0  0  0  0  0  0  0  0  0  0  0  0
   11.6250   -1.9340   -2.1140 C   0  0  0  0  0  3  0  0  0  0  0  0
   11.7440   -1.0330   -3.1690 C   0  0  0  0  0  3  0  0  0  0  0  0
   11.2690    0.2680   -3.0230 C   0  0  0  0  0  3  0  0  0  0  0  0
   10.6900    0.6720   -1.8170 C   0  0  0  0  0  3  0  0  0  0  0  0
   10.5690   -0.2170   -0.7340 C   0  0  0  0  0  0  0  0  0  0  0  0
   10.0330   -3.5230   -0.3430 C   0  0  0  0  0  1  0  0  0  0  0  0
   10.9200   -2.4810    0.0770 O   0  0  0  0  0  0  0  0  0  0  0  0
   11.9030    3.7220    1.5750 N   0  0  0  0  0  4  0  0  0  0  0  0
   11.8530    4.3360    0.3460 C   0  0  0  0  0  0  0  0  0  0  0  0
   12.5660    3.9220   -0.5740 O   0  0  0  0  0  0  0  0  0  0  0  0
   12.6420    3.0300    1.6340 H   0  0  0  0  0  0  0  0  0  0  0  0
   11.0410    5.5430    0.0950 C   0  0  0  0  0  0  0  0  0  0  0  0
    9.6910    5.3830   -0.2440 C   0  0  0  0  0  3  0  0  0  0  0  0
    8.9150    6.4980   -0.5620 C   0  0  0  0  0  3  0  0  0  0  0  0
    9.4890    7.7700   -0.5600 C   0  0  0  0  0  3  0  0  0  0  0  0
   10.8410    7.9270   -0.2490 C   0  0  0  0  0  3  0  0  0  0  0  0
   11.6220    6.8140    0.0650 C   0  0  0  0  0  3  0  0  0  0  0  0
   11.0570    4.9960    3.7060 C   0  0  0  0  0  0  0  0  0  0  0  0
   10.0880    4.9760    4.5220 O   0  0  0  0  0  1  0  0  0  0  0  0
   11.9680    5.8560    3.5480 O   0  0  0  0  0  0  0  0  0  0  0  0
  2  1  1  0  0  0  0
  2 26  1  0  0  0  0
  3  7  1  0  0  0  0
  3  4  2  0  0  0  0
  4  5  1  0  0  0  0
  6  5  2  0  0  0  0
  6  1  1  0  0  0  0
  7  6  1  0  0  0  0
  8 13  1  0  0  0  0
  8 15  1  0  0  0  0
  9  8  2  0  0  0  0
 10 11  2  0  0  0  0
 10  9  1  0  0  0  0
 11 12  1  0  0  0  0
 12 13  2  0  0  0  0
 13  3  1  0  0  0  0
 14 15  1  0  0  0  0
 16 19  1  0  0  0  0
 16  2  2  0  0  0  0
 17 16  1  0  0  0  0
 18 17  2  0  0  0  0
 20 17  1  0  0  0  0
 21 20  2  0  0  0  0
 22 23  2  0  0  0  0
 22 21  1  0  0  0  0
 23 24  1  0  0  0  0
 24 25  2  0  0  0  0
 25 20  1  0  0  0  0
 26 27  1  0  0  0  0
 28 26  2  0  0  0  0
M  END
>  <minimizedAffinity>
-6.19001198

$$$$
