
 OpenBabel09132204463D

 28 30  0  0  0  0  0  0  0  0999 V2000
   10.5650    6.7460    2.8400 C   0  0  0  0  0  2  0  0  0  0  0  0
    9.7270    7.4100    2.0180 C   0  0  0  0  0  0  0  0  0  0  0  0
   11.4030    3.4580    1.6180 C   0  0  0  0  0  0  0  0  0  0  0  0
   12.1370    3.4380    2.7820 C   0  0  0  0  0  3  0  0  0  0  0  0
   11.9320    4.6920    3.4050 C   0  0  0  0  0  3  0  0  0  0  0  0
   11.0710    5.4350    2.6050 C   0  0  0  0  0  0  0  0  0  0  0  0
   10.7660    4.6570    1.5090 O   0  0  0  0  0  0  0  0  0  0  0  0
   10.2230    1.4710    0.6370 C   0  0  0  0  0  0  0  0  0  0  0  0
   10.0620    0.5370   -0.3940 C   0  0  0  0  0  3  0  0  0  0  0  0
   10.8050    0.6580   -1.5660 C   0  0  0  0  0  3  0  0  0  0  0  0
   11.7140    1.7040   -1.7030 C   0  0  0  0  0  3  0  0  0  0  0  0
   11.8920    2.6200   -0.6610 C   0  0  0  0  0  3  0  0  0  0  0  0
   11.1610    2.5100    0.5360 C   0  0  0  0  0  0  0  0  0  0  0  0
    8.9790   -0.0510    1.8170 C   0  0  0  0  0  1  0  0  0  0  0  0
    9.4440    1.3000    1.7580 O   0  0  0  0  0  0  0  0  0  0  0  0
    9.2440    6.8510    0.8410 N   0  0  0  0  0  4  0  0  0  0  0  0
    9.3770    7.2220   -0.4760 C   0  0  0  0  0  0  0  0  0  0  0  0
    8.6650    6.6940   -1.3350 O   0  0  0  0  0  0  0  0  0  0  0  0
    8.6240    6.0580    0.9610 H   0  0  0  0  0  0  0  0  0  0  0  0
   10.4100    8.1750   -0.9300 C   0  0  0  0  0  0  0  0  0  0  0  0
   10.0750    9.5310   -1.0230 C   0  0  0  0  0  3  0  0  0  0  0  0
   11.0030   10.4460   -1.5220 C   0  0  0  0  0  3  0  0  0  0  0  0
   12.2570   10.0050   -1.9460 C   0  0  0  0  0  3  0  0  0  0  0  0
   12.5820    8.6490   -1.8790 C   0  0  0  0  0  3  0  0  0  0  0  0
   11.6550    7.7300   -1.3840 C   0  0  0  0  0  3  0  0  0  0  0  0
    9.3110    8.7880    2.6100 C   0  0  0  0  0  0  0  0  0  0  0  0
   10.2530    9.6270    2.7210 O   0  0  0  0  0  0  0  0  0  0  0  0
    8.1000    8.8750    2.9600 O   0  0  0  0  0  1  0  0  0  0  0  0
  2 26  1  0  0  0  0
  2  1  1  0  0  0  0
  3  4  2  0  0  0  0
  4  5  1  0  0  0  0
  6  1  1  0  0  0  0
  6  5  2  0  0  0  0
  7  3  1  0  0  0  0
  7  6  1  0  0  0  0
  8 15  1  0  0  0  0
  9  8  2  0  0  0  0
 10  9  1  0  0  0  0
 11 10  2  0  0  0  0
 11 12  1  0  0  0  0
 12 13  2  0  0  0  0
 13  8  1  0  0  0  0
 13  3  1  0  0  0  0
 15 14  1  0  0  0  0
 16 19  1  0  0  0  0
 16  2  2  0  0  0  0
 17 16  1  0  0  0  0
 18 17  2  0  0  0  0
 20 17  1  0  0  0  0
 21 20  1  0  0  0  0
 22 21  2  0  0  0  0
 23 24  2  0  0  0  0
 23 22  1  0  0  0  0
 24 25  1  0  0  0  0
 25 20  2  0  0  0  0
 26 27  2  0  0  0  0
 26 28  1  0  0  0  0
M  END
>  <minimizedAffinity>
-6.17709541

$$$$
