
 OpenBabel09122223423D

 28 30  0  0  0  0  0  0  0  0999 V2000
    9.8210    1.4710    4.0060 C   0  0  0  0  0  2  0  0  0  0  0  0
   10.3680    0.9620    5.1290 C   0  0  0  0  0  0  0  0  0  0  0  0
    9.3610   -0.9150    1.3410 C   0  0  0  0  0  0  0  0  0  0  0  0
    9.6270    0.1980    0.5760 C   0  0  0  0  0  3  0  0  0  0  0  0
    9.8270    1.2660    1.4830 C   0  0  0  0  0  3  0  0  0  0  0  0
    9.6850    0.7690    2.7730 C   0  0  0  0  0  0  0  0  0  0  0  0
    9.3910   -0.5730    2.6590 O   0  0  0  0  0  0  0  0  0  0  0  0
    9.5360   -2.9580   -0.1080 C   0  0  0  0  0  0  0  0  0  0  0  0
    9.1940   -4.2870   -0.3850 C   0  0  0  0  0  3  0  0  0  0  0  0
    8.4280   -5.0140    0.5240 C   0  0  0  0  0  3  0  0  0  0  0  0
    7.9970   -4.4090    1.7030 C   0  0  0  0  0  3  0  0  0  0  0  0
    8.3180   -3.0740    1.9640 C   0  0  0  0  0  3  0  0  0  0  0  0
    9.0800   -2.3180    1.0560 C   0  0  0  0  0  0  0  0  0  0  0  0
   11.5910   -2.9380   -1.1250 C   0  0  0  0  0  1  0  0  0  0  0  0
   10.3090   -2.3070   -1.0410 O   0  0  0  0  0  0  0  0  0  0  0  0
   10.8900   -0.3240    5.1840 N   0  0  0  0  0  4  0  0  0  0  0  0
   10.4130   -1.4870    5.7400 C   0  0  0  0  0  0  0  0  0  0  0  0
   11.1630   -2.4610    5.8590 O   0  0  0  0  0  0  0  0  0  0  0  0
   11.8240   -0.4290    4.8040 H   0  0  0  0  0  0  0  0  0  0  0  0
    8.9980   -1.6590    6.1260 C   0  0  0  0  0  0  0  0  0  0  0  0
    8.4850   -0.8660    7.1610 C   0  0  0  0  0  3  0  0  0  0  0  0
    7.1750   -1.0570    7.6010 C   0  0  0  0  0  3  0  0  0  0  0  0
    6.3830   -2.0500    7.0240 C   0  0  0  0  0  3  0  0  0  0  0  0
    6.9030   -2.8580    6.0110 C   0  0  0  0  0  3  0  0  0  0  0  0
    8.2140   -2.6740    5.5700 C   0  0  0  0  0  3  0  0  0  0  0  0
   10.4280    2.0190    6.2700 C   0  0  0  0  0  0  0  0  0  0  0  0
    9.3430    2.6380    6.4820 O   0  0  0  0  0  0  0  0  0  0  0  0
   11.5660    2.1700    6.7990 O   0  0  0  0  0  1  0  0  0  0  0  0
  1  2  1  0  0  0  0
  2 16  2  0  0  0  0
  2 26  1  0  0  0  0
  3  7  1  0  0  0  0
  4  3  2  0  0  0  0
  4  5  1  0  0  0  0
  5  6  2  0  0  0  0
  6  1  1  0  0  0  0
  7  6  1  0  0  0  0
  8 13  1  0  0  0  0
  9  8  2  0  0  0  0
  9 10  1  0  0  0  0
 10 11  2  0  0  0  0
 11 12  1  0  0  0  0
 13  3  1  0  0  0  0
 13 12  2  0  0  0  0
 14 15  1  0  0  0  0
 15  8  1  0  0  0  0
 16 17  1  0  0  0  0
 17 18  2  0  0  0  0
 17 20  1  0  0  0  0
 19 16  1  0  0  0  0
 20 21  1  0  0  0  0
 21 22  2  0  0  0  0
 23 22  1  0  0  0  0
 24 23  2  0  0  0  0
 25 24  1  0  0  0  0
 25 20  2  0  0  0  0
 26 27  2  0  0  0  0
 26 28  1  0  0  0  0
M  END
>  <minimizedAffinity>
-6.52597618

$$$$

 OpenBabel09122223423D

 28 30  0  0  0  0  0  0  0  0999 V2000
    8.9270   -2.8940    3.8720 C   0  0  0  0  0  2  0  0  0  0  0  0
    8.3960   -2.6930    2.6490 C   0  0  0  0  0  0  0  0  0  0  0  0
   10.3470    0.0860    5.3230 C   0  0  0  0  0  0  0  0  0  0  0  0
   10.9940   -0.8470    6.0990 C   0  0  0  0  0  3  0  0  0  0  0  0
   10.5350   -2.1140    5.6650 C   0  0  0  0  0  3  0  0  0  0  0  0
    9.6280   -1.9130    4.6300 C   0  0  0  0  0  0  0  0  0  0  0  0
    9.5230   -0.5510    4.4440 O   0  0  0  0  0  0  0  0  0  0  0  0
    9.6550    2.3620    6.1290 C   0  0  0  0  0  0  0  0  0  0  0  0
    9.6370    3.7530    5.9770 C   0  0  0  0  0  3  0  0  0  0  0  0
   10.3690    4.3530    4.9550 C   0  0  0  0  0  3  0  0  0  0  0  0
   11.1090    3.5610    4.0800 C   0  0  0  0  0  3  0  0  0  0  0  0
   11.1040    2.1700    4.2170 C   0  0  0  0  0  3  0  0  0  0  0  0
   10.3630    1.5430    5.2350 C   0  0  0  0  0  0  0  0  0  0  0  0
    8.1690    2.8820    7.7950 C   0  0  0  0  0  1  0  0  0  0  0  0
    8.9240    1.8400    7.1700 O   0  0  0  0  0  0  0  0  0  0  0  0
    8.5090   -1.4800    1.9820 N   0  0  0  0  0  4  0  0  0  0  0  0
    9.4350   -1.0060    1.0840 C   0  0  0  0  0  0  0  0  0  0  0  0
    9.4510    0.1950    0.7970 O   0  0  0  0  0  0  0  0  0  0  0  0
    7.8240   -0.7780    2.2410 H   0  0  0  0  0  0  0  0  0  0  0  0
   10.3710   -1.8960    0.3670 C   0  0  0  0  0  0  0  0  0  0  0  0
   11.1440   -2.7940    1.1130 C   0  0  0  0  0  3  0  0  0  0  0  0
   12.0930   -3.5940    0.4740 C   0  0  0  0  0  3  0  0  0  0  0  0
   12.2830   -3.4840   -0.9030 C   0  0  0  0  0  3  0  0  0  0  0  0
   11.5310   -2.5700   -1.6430 C   0  0  0  0  0  3  0  0  0  0  0  0
   10.5840   -1.7640   -1.0080 C   0  0  0  0  0  3  0  0  0  0  0  0
    7.7650   -3.9940    2.0730 C   0  0  0  0  0  0  0  0  0  0  0  0
    6.8280   -4.4860    2.7700 O   0  0  0  0  0  1  0  0  0  0  0  0
    8.3060   -4.4280    1.0170 O   0  0  0  0  0  0  0  0  0  0  0  0
  1  6  1  0  0  0  0
  2  1  1  0  0  0  0
  3  4  2  0  0  0  0
  5  4  1  0  0  0  0
  6  5  2  0  0  0  0
  7  6  1  0  0  0  0
  7  3  1  0  0  0  0
  8 15  1  0  0  0  0
  9  8  1  0  0  0  0
 10  9  2  0  0  0  0
 11 12  2  0  0  0  0
 11 10  1  0  0  0  0
 12 13  1  0  0  0  0
 13  3  1  0  0  0  0
 13  8  2  0  0  0  0
 15 14  1  0  0  0  0
 16 19  1  0  0  0  0
 16  2  2  0  0  0  0
 17 16  1  0  0  0  0
 18 17  2  0  0  0  0
 20 17  1  0  0  0  0
 20 21  1  0  0  0  0
 22 21  2  0  0  0  0
 23 22  1  0  0  0  0
 24 25  1  0  0  0  0
 24 23  2  0  0  0  0
 25 20  2  0  0  0  0
 26  2  1  0  0  0  0
 26 27  1  0  0  0  0
 28 26  2  0  0  0  0
M  END
>  <minimizedAffinity>
-6.44992542

$$$$

 OpenBabel09122223423D

 28 30  0  0  0  0  0  0  0  0999 V2000
    8.4660   -3.2100    1.9390 C   0  0  0  0  0  2  0  0  0  0  0  0
    9.1280   -3.8050    0.9260 C   0  0  0  0  0  0  0  0  0  0  0  0
    9.8940   -0.8070    4.2180 C   0  0  0  0  0  0  0  0  0  0  0  0
   10.1430   -1.9500    4.9430 C   0  0  0  0  0  3  0  0  0  0  0  0
    9.6220   -3.0250    4.1830 C   0  0  0  0  0  3  0  0  0  0  0  0
    9.0800   -2.5040    3.0140 C   0  0  0  0  0  0  0  0  0  0  0  0
    9.2520   -1.1370    3.0630 O   0  0  0  0  0  0  0  0  0  0  0  0
   10.5540    1.1490    5.6470 C   0  0  0  0  0  0  0  0  0  0  0  0
   10.7460    2.5260    5.8120 C   0  0  0  0  0  3  0  0  0  0  0  0
   10.6030    3.3850    4.7240 C   0  0  0  0  0  3  0  0  0  0  0  0
   10.2580    2.8690    3.4770 C   0  0  0  0  0  3  0  0  0  0  0  0
   10.0410    1.4970    3.3220 C   0  0  0  0  0  3  0  0  0  0  0  0
   10.1690    0.6130    4.4070 C   0  0  0  0  0  0  0  0  0  0  0  0
    9.8780    0.8190    7.8130 C   0  0  0  0  0  1  0  0  0  0  0  0
   10.7290    0.3590    6.7590 O   0  0  0  0  0  0  0  0  0  0  0  0
   10.5140   -3.8080    0.8460 N   0  0  0  0  0  4  0  0  0  0  0  0
   11.3920   -3.1050    0.0550 C   0  0  0  0  0  0  0  0  0  0  0  0
   12.5790   -3.4440    0.0070 O   0  0  0  0  0  0  0  0  0  0  0  0
   10.9800   -4.4960    1.4270 H   0  0  0  0  0  0  0  0  0  0  0  0
   10.9940   -1.8890   -0.6820 C   0  0  0  0  0  0  0  0  0  0  0  0
   11.3130   -1.7970   -2.0430 C   0  0  0  0  0  3  0  0  0  0  0  0
   11.0200   -0.6300   -2.7500 C   0  0  0  0  0  3  0  0  0  0  0  0
   10.4280    0.4500   -2.0970 C   0  0  0  0  0  3  0  0  0  0  0  0
   10.1350    0.3690   -0.7340 C   0  0  0  0  0  3  0  0  0  0  0  0
   10.4300   -0.7940   -0.0220 C   0  0  0  0  0  3  0  0  0  0  0  0
    8.1580   -4.5500   -0.0360 C   0  0  0  0  0  0  0  0  0  0  0  0
    7.1140   -5.0150    0.5120 O   0  0  0  0  0  1  0  0  0  0  0  0
    8.5620   -4.6510   -1.2290 O   0  0  0  0  0  0  0  0  0  0  0  0
  1  6  1  0  0  0  0
  2  1  1  0  0  0  0
  3 13  1  0  0  0  0
  3  4  2  0  0  0  0
  5  4  1  0  0  0  0
  6  7  1  0  0  0  0
  6  5  2  0  0  0  0
  7  3  1  0  0  0  0
  8  9  1  0  0  0  0
  8 15  1  0  0  0  0
 10  9  2  0  0  0  0
 11 10  1  0  0  0  0
 12 11  2  0  0  0  0
 12 13  1  0  0  0  0
 13  8  2  0  0  0  0
 15 14  1  0  0  0  0
 16  2  2  0  0  0  0
 16 19  1  0  0  0  0
 17 16  1  0  0  0  0
 18 17  2  0  0  0  0
 20 25  1  0  0  0  0
 20 17  1  0  0  0  0
 21 20  2  0  0  0  0
 22 23  2  0  0  0  0
 22 21  1  0  0  0  0
 23 24  1  0  0  0  0
 24 25  2  0  0  0  0
 26 27  1  0  0  0  0
 26  2  1  0  0  0  0
 28 26  2  0  0  0  0
M  END
>  <minimizedAffinity>
-6.33925962

$$$$

 OpenBabel09122223423D

 28 30  0  0  0  0  0  0  0  0999 V2000
    8.9990   -0.8640    2.2090 C   0  0  0  0  0  2  0  0  0  0  0  0
    9.3780   -2.0610    2.7020 C   0  0  0  0  0  0  0  0  0  0  0  0
   10.3360    1.9750    3.9870 C   0  0  0  0  0  0  0  0  0  0  0  0
   10.1810    2.5610    2.7520 C   0  0  0  0  0  3  0  0  0  0  0  0
    9.6630    1.5590    1.8970 C   0  0  0  0  0  3  0  0  0  0  0  0
    9.5090    0.3950    2.6410 C   0  0  0  0  0  0  0  0  0  0  0  0
    9.9370    0.6740    3.9220 O   0  0  0  0  0  0  0  0  0  0  0  0
   10.0070    3.2160    6.1450 C   0  0  0  0  0  0  0  0  0  0  0  0
   10.5050    3.6940    7.3630 C   0  0  0  0  0  3  0  0  0  0  0  0
   11.7920    3.3510    7.7720 C   0  0  0  0  0  3  0  0  0  0  0  0
   12.5820    2.5420    6.9590 C   0  0  0  0  0  3  0  0  0  0  0  0
   12.0910    2.0880    5.7310 C   0  0  0  0  0  3  0  0  0  0  0  0
   10.8000    2.4310    5.2930 C   0  0  0  0  0  0  0  0  0  0  0  0
    7.9050    3.5770    6.9880 C   0  0  0  0  0  1  0  0  0  0  0  0
    8.7220    3.5790    5.8130 O   0  0  0  0  0  0  0  0  0  0  0  0
   10.3090   -2.1820    3.7260 N   0  0  0  0  0  4  0  0  0  0  0  0
   10.2110   -1.9980    5.0840 C   0  0  0  0  0  0  0  0  0  0  0  0
   11.2370   -1.9440    5.7700 O   0  0  0  0  0  0  0  0  0  0  0  0
   11.2570   -2.3800    3.4270 H   0  0  0  0  0  0  0  0  0  0  0  0
    8.9130   -1.9500    5.7860 C   0  0  0  0  0  0  0  0  0  0  0  0
    8.6770   -0.9040    6.6870 C   0  0  0  0  0  3  0  0  0  0  0  0
    7.4920   -0.8720    7.4240 C   0  0  0  0  0  3  0  0  0  0  0  0
    6.5520   -1.8920    7.2760 C   0  0  0  0  0  3  0  0  0  0  0  0
    6.7990   -2.9490    6.3980 C   0  0  0  0  0  3  0  0  0  0  0  0
    7.9840   -2.9880    5.6630 C   0  0  0  0  0  3  0  0  0  0  0  0
    8.5710   -3.2280    2.0620 C   0  0  0  0  0  0  0  0  0  0  0  0
    7.7020   -3.7540    2.8180 O   0  0  0  0  0  1  0  0  0  0  0  0
    8.9260   -3.5420    0.8900 O   0  0  0  0  0  0  0  0  0  0  0  0
  1  6  1  0  0  0  0
  1  2  1  0  0  0  0
  2 16  2  0  0  0  0
  3 13  1  0  0  0  0
  4  3  2  0  0  0  0
  5  6  2  0  0  0  0
  5  4  1  0  0  0  0
  6  7  1  0  0  0  0
  7  3  1  0  0  0  0
  8  9  1  0  0  0  0
  9 10  2  0  0  0  0
 11 10  1  0  0  0  0
 12 11  2  0  0  0  0
 13 12  1  0  0  0  0
 13  8  2  0  0  0  0
 15  8  1  0  0  0  0
 15 14  1  0  0  0  0
 16 17  1  0  0  0  0
 17 18  2  0  0  0  0
 17 20  1  0  0  0  0
 19 16  1  0  0  0  0
 20 21  1  0  0  0  0
 21 22  2  0  0  0  0
 23 22  1  0  0  0  0
 24 23  2  0  0  0  0
 25 20  2  0  0  0  0
 25 24  1  0  0  0  0
 26  2  1  0  0  0  0
 26 27  1  0  0  0  0
 28 26  2  0  0  0  0
M  END
>  <minimizedAffinity>
-6.28043747

$$$$

 OpenBabel09122223423D

 28 30  0  0  0  0  0  0  0  0999 V2000
   10.1350    2.8980    2.9690 C   0  0  0  0  0  2  0  0  0  0  0  0
   11.0850    3.8140    2.6930 C   0  0  0  0  0  0  0  0  0  0  0  0
    9.9980    0.2500    0.5240 C   0  0  0  0  0  0  0  0  0  0  0  0
    9.0130   -0.2020    1.3720 C   0  0  0  0  0  3  0  0  0  0  0  0
    8.9350    0.7350    2.4290 C   0  0  0  0  0  3  0  0  0  0  0  0
    9.8700    1.7360    2.1880 C   0  0  0  0  0  0  0  0  0  0  0  0
   10.5160    1.4110    1.0150 O   0  0  0  0  0  0  0  0  0  0  0  0
   11.0200   -1.5350   -0.9160 C   0  0  0  0  0  0  0  0  0  0  0  0
   11.6250   -1.9340   -2.1140 C   0  0  0  0  0  3  0  0  0  0  0  0
   11.7440   -1.0330   -3.1690 C   0  0  0  0  0  3  0  0  0  0  0  0
   11.2690    0.2680   -3.0230 C   0  0  0  0  0  3  0  0  0  0  0  0
   10.6900    0.6720   -1.8170 C   0  0  0  0  0  3  0  0  0  0  0  0
   10.5690   -0.2170   -0.7340 C   0  0  0  0  0  0  0  0  0  0  0  0
   10.0330   -3.5230   -0.3430 C   0  0  0  0  0  1  0  0  0  0  0  0
   10.9200   -2.4810    0.0770 O   0  0  0  0  0  0  0  0  0  0  0  0
   11.9030    3.7220    1.5750 N   0  0  0  0  0  4  0  0  0  0  0  0
   11.8530    4.3360    0.3460 C   0  0  0  0  0  0  0  0  0  0  0  0
   12.5660    3.9220   -0.5740 O   0  0  0  0  0  0  0  0  0  0  0  0
   12.6420    3.0300    1.6340 H   0  0  0  0  0  0  0  0  0  0  0  0
   11.0410    5.5430    0.0950 C   0  0  0  0  0  0  0  0  0  0  0  0
    9.6910    5.3830   -0.2440 C   0  0  0  0  0  3  0  0  0  0  0  0
    8.9150    6.4980   -0.5620 C   0  0  0  0  0  3  0  0  0  0  0  0
    9.4890    7.7700   -0.5600 C   0  0  0  0  0  3  0  0  0  0  0  0
   10.8410    7.9270   -0.2490 C   0  0  0  0  0  3  0  0  0  0  0  0
   11.6220    6.8140    0.0650 C   0  0  0  0  0  3  0  0  0  0  0  0
   11.0570    4.9960    3.7060 C   0  0  0  0  0  0  0  0  0  0  0  0
   10.0880    4.9760    4.5220 O   0  0  0  0  0  1  0  0  0  0  0  0
   11.9680    5.8560    3.5480 O   0  0  0  0  0  0  0  0  0  0  0  0
  2  1  1  0  0  0  0
  2 26  1  0  0  0  0
  3  7  1  0  0  0  0
  3  4  2  0  0  0  0
  4  5  1  0  0  0  0
  6  5  2  0  0  0  0
  6  1  1  0  0  0  0
  7  6  1  0  0  0  0
  8 13  1  0  0  0  0
  8 15  1  0  0  0  0
  9  8  2  0  0  0  0
 10 11  2  0  0  0  0
 10  9  1  0  0  0  0
 11 12  1  0  0  0  0
 12 13  2  0  0  0  0
 13  3  1  0  0  0  0
 14 15  1  0  0  0  0
 16 19  1  0  0  0  0
 16  2  2  0  0  0  0
 17 16  1  0  0  0  0
 18 17  2  0  0  0  0
 20 17  1  0  0  0  0
 21 20  2  0  0  0  0
 22 23  2  0  0  0  0
 22 21  1  0  0  0  0
 23 24  1  0  0  0  0
 24 25  2  0  0  0  0
 25 20  1  0  0  0  0
 26 27  1  0  0  0  0
 28 26  2  0  0  0  0
M  END
>  <minimizedAffinity>
-6.19001198

$$$$

 OpenBabel09122223423D

 28 30  0  0  0  0  0  0  0  0999 V2000
    9.2930   -1.5420    4.6780 C   0  0  0  0  0  2  0  0  0  0  0  0
    9.8860   -0.4480    5.1970 C   0  0  0  0  0  0  0  0  0  0  0  0
    9.6230   -1.7400    1.0920 C   0  0  0  0  0  0  0  0  0  0  0  0
    8.9550   -2.9240    1.3020 C   0  0  0  0  0  3  0  0  0  0  0  0
    8.7460   -3.0220    2.6980 C   0  0  0  0  0  3  0  0  0  0  0  0
    9.2860   -1.8890    3.2960 C   0  0  0  0  0  0  0  0  0  0  0  0
    9.8270   -1.1190    2.2880 O   0  0  0  0  0  0  0  0  0  0  0  0
   10.6950   -1.7000   -1.1780 C   0  0  0  0  0  0  0  0  0  0  0  0
   11.2280   -0.9900   -2.2610 C   0  0  0  0  0  3  0  0  0  0  0  0
   11.1530    0.4010   -2.2860 C   0  0  0  0  0  3  0  0  0  0  0  0
   10.5560    1.0810   -1.2270 C   0  0  0  0  0  3  0  0  0  0  0  0
   10.0490    0.3700   -0.1350 C   0  0  0  0  0  3  0  0  0  0  0  0
   10.1240   -1.0330   -0.0820 C   0  0  0  0  0  0  0  0  0  0  0  0
   12.0840   -3.4470   -1.7030 C   0  0  0  0  0  1  0  0  0  0  0  0
   10.7880   -3.0710   -1.2280 O   0  0  0  0  0  0  0  0  0  0  0  0
   10.5450    0.4850    4.4070 N   0  0  0  0  0  4  0  0  0  0  0  0
   10.7010    1.8460    4.5260 C   0  0  0  0  0  0  0  0  0  0  0  0
   11.1400    2.4970    3.5730 O   0  0  0  0  0  0  0  0  0  0  0  0
   10.9360    0.1230    3.5440 H   0  0  0  0  0  0  0  0  0  0  0  0
   10.4470    2.5650    5.7910 C   0  0  0  0  0  0  0  0  0  0  0  0
    9.2470    3.2730    5.9290 C   0  0  0  0  0  3  0  0  0  0  0  0
    9.0100    4.0260    7.0800 C   0  0  0  0  0  3  0  0  0  0  0  0
    9.9770    4.0870    8.0830 C   0  0  0  0  0  3  0  0  0  0  0  0
   11.1850    3.4030    7.9340 C   0  0  0  0  0  3  0  0  0  0  0  0
   11.4280    2.6530    6.7830 C   0  0  0  0  0  3  0  0  0  0  0  0
    9.6380   -0.3310    6.7290 C   0  0  0  0  0  0  0  0  0  0  0  0
   10.6280   -0.6460    7.4550 O   0  0  0  0  0  1  0  0  0  0  0  0
    8.4650    0.0040    7.0570 O   0  0  0  0  0  0  0  0  0  0  0  0
  1  2  1  0  0  0  0
  2 26  1  0  0  0  0
  3  4  2  0  0  0  0
  3  7  1  0  0  0  0
  4  5  1  0  0  0  0
  5  6  2  0  0  0  0
  6  1  1  0  0  0  0
  7  6  1  0  0  0  0
  8 13  1  0  0  0  0
  9  8  2  0  0  0  0
 10  9  1  0  0  0  0
 10 11  2  0  0  0  0
 11 12  1  0  0  0  0
 12 13  2  0  0  0  0
 13  3  1  0  0  0  0
 14 15  1  0  0  0  0
 15  8  1  0  0  0  0
 16 17  1  0  0  0  0
 16  2  2  0  0  0  0
 17 20  1  0  0  0  0
 18 17  2  0  0  0  0
 19 16  1  0  0  0  0
 20 21  2  0  0  0  0
 20 25  1  0  0  0  0
 21 22  1  0  0  0  0
 22 23  2  0  0  0  0
 24 23  1  0  0  0  0
 25 24  2  0  0  0  0
 26 28  2  0  0  0  0
 26 27  1  0  0  0  0
M  END
>  <minimizedAffinity>
-6.18584251

$$$$

 OpenBabel09122223423D

 28 30  0  0  0  0  0  0  0  0999 V2000
   10.5650    6.7460    2.8400 C   0  0  0  0  0  2  0  0  0  0  0  0
    9.7270    7.4100    2.0180 C   0  0  0  0  0  0  0  0  0  0  0  0
   11.4030    3.4580    1.6180 C   0  0  0  0  0  0  0  0  0  0  0  0
   12.1370    3.4380    2.7820 C   0  0  0  0  0  3  0  0  0  0  0  0
   11.9320    4.6920    3.4050 C   0  0  0  0  0  3  0  0  0  0  0  0
   11.0710    5.4350    2.6050 C   0  0  0  0  0  0  0  0  0  0  0  0
   10.7660    4.6570    1.5090 O   0  0  0  0  0  0  0  0  0  0  0  0
   10.2230    1.4710    0.6370 C   0  0  0  0  0  0  0  0  0  0  0  0
   10.0620    0.5370   -0.3940 C   0  0  0  0  0  3  0  0  0  0  0  0
   10.8050    0.6580   -1.5660 C   0  0  0  0  0  3  0  0  0  0  0  0
   11.7140    1.7040   -1.7030 C   0  0  0  0  0  3  0  0  0  0  0  0
   11.8920    2.6200   -0.6610 C   0  0  0  0  0  3  0  0  0  0  0  0
   11.1610    2.5100    0.5360 C   0  0  0  0  0  0  0  0  0  0  0  0
    8.9790   -0.0510    1.8170 C   0  0  0  0  0  1  0  0  0  0  0  0
    9.4440    1.3000    1.7580 O   0  0  0  0  0  0  0  0  0  0  0  0
    9.2440    6.8510    0.8410 N   0  0  0  0  0  4  0  0  0  0  0  0
    9.3770    7.2220   -0.4760 C   0  0  0  0  0  0  0  0  0  0  0  0
    8.6650    6.6940   -1.3350 O   0  0  0  0  0  0  0  0  0  0  0  0
    8.6240    6.0580    0.9610 H   0  0  0  0  0  0  0  0  0  0  0  0
   10.4100    8.1750   -0.9300 C   0  0  0  0  0  0  0  0  0  0  0  0
   10.0750    9.5310   -1.0230 C   0  0  0  0  0  3  0  0  0  0  0  0
   11.0030   10.4460   -1.5220 C   0  0  0  0  0  3  0  0  0  0  0  0
   12.2570   10.0050   -1.9460 C   0  0  0  0  0  3  0  0  0  0  0  0
   12.5820    8.6490   -1.8790 C   0  0  0  0  0  3  0  0  0  0  0  0
   11.6550    7.7300   -1.3840 C   0  0  0  0  0  3  0  0  0  0  0  0
    9.3110    8.7880    2.6100 C   0  0  0  0  0  0  0  0  0  0  0  0
   10.2530    9.6270    2.7210 O   0  0  0  0  0  0  0  0  0  0  0  0
    8.1000    8.8750    2.9600 O   0  0  0  0  0  1  0  0  0  0  0  0
  2 26  1  0  0  0  0
  2  1  1  0  0  0  0
  3  4  2  0  0  0  0
  4  5  1  0  0  0  0
  6  1  1  0  0  0  0
  6  5  2  0  0  0  0
  7  3  1  0  0  0  0
  7  6  1  0  0  0  0
  8 15  1  0  0  0  0
  9  8  2  0  0  0  0
 10  9  1  0  0  0  0
 11 10  2  0  0  0  0
 11 12  1  0  0  0  0
 12 13  2  0  0  0  0
 13  8  1  0  0  0  0
 13  3  1  0  0  0  0
 15 14  1  0  0  0  0
 16 19  1  0  0  0  0
 16  2  2  0  0  0  0
 17 16  1  0  0  0  0
 18 17  2  0  0  0  0
 20 17  1  0  0  0  0
 21 20  1  0  0  0  0
 22 21  2  0  0  0  0
 23 24  2  0  0  0  0
 23 22  1  0  0  0  0
 24 25  1  0  0  0  0
 25 20  2  0  0  0  0
 26 27  2  0  0  0  0
 26 28  1  0  0  0  0
M  END
>  <minimizedAffinity>
-6.17709541

$$$$

 OpenBabel09122223423D

 28 30  0  0  0  0  0  0  0  0999 V2000
   10.1360    7.1880    1.8660 C   0  0  0  0  0  2  0  0  0  0  0  0
    9.2570    7.8040    1.0500 C   0  0  0  0  0  0  0  0  0  0  0  0
   11.2180    3.8530    1.0200 C   0  0  0  0  0  0  0  0  0  0  0  0
   12.4540    4.4370    1.1710 C   0  0  0  0  0  3  0  0  0  0  0  0
   12.2170    5.7930    1.5020 C   0  0  0  0  0  3  0  0  0  0  0  0
   10.8420    5.9900    1.5510 C   0  0  0  0  0  0  0  0  0  0  0  0
   10.2490    4.7850    1.2430 O   0  0  0  0  0  0  0  0  0  0  0  0
   11.1950    1.7990   -0.4250 C   0  0  0  0  0  0  0  0  0  0  0  0
   10.6720    0.5400   -0.7410 C   0  0  0  0  0  3  0  0  0  0  0  0
    9.7240   -0.0510    0.0920 C   0  0  0  0  0  3  0  0  0  0  0  0
    9.2920    0.6210    1.2330 C   0  0  0  0  0  3  0  0  0  0  0  0
    9.7970    1.8900    1.5320 C   0  0  0  0  0  3  0  0  0  0  0  0
   10.7450    2.5110    0.7000 C   0  0  0  0  0  0  0  0  0  0  0  0
   12.1150    1.5880   -2.5140 C   0  0  0  0  0  1  0  0  0  0  0  0
   12.1390    2.3140   -1.2810 O   0  0  0  0  0  0  0  0  0  0  0  0
    8.9270    7.3010   -0.2020 N   0  0  0  0  0  4  0  0  0  0  0  0
    9.2170    7.7350   -1.4730 C   0  0  0  0  0  0  0  0  0  0  0  0
    8.6200    7.2460   -2.4380 O   0  0  0  0  0  0  0  0  0  0  0  0
    8.3040    6.5000   -0.1970 H   0  0  0  0  0  0  0  0  0  0  0  0
   10.2880    8.7120   -1.7520 C   0  0  0  0  0  0  0  0  0  0  0  0
   10.0490    9.7160   -2.6980 C   0  0  0  0  0  3  0  0  0  0  0  0
   11.0670   10.6080   -3.0410 C   0  0  0  0  0  3  0  0  0  0  0  0
   12.3270   10.4860   -2.4550 C   0  0  0  0  0  3  0  0  0  0  0  0
   12.5740    9.4680   -1.5320 C   0  0  0  0  0  3  0  0  0  0  0  0
   11.5610    8.5710   -1.1900 C   0  0  0  0  0  3  0  0  0  0  0  0
    8.6110    9.0450    1.7320 C   0  0  0  0  0  0  0  0  0  0  0  0
    8.2870    8.8780    2.9460 O   0  0  0  0  0  1  0  0  0  0  0  0
    8.4350   10.0400    0.9740 O   0  0  0  0  0  0  0  0  0  0  0  0
  2 26  1  0  0  0  0
  2  1  1  0  0  0  0
  3  4  2  0  0  0  0
  3  7  1  0  0  0  0
  4  5  1  0  0  0  0
  5  6  2  0  0  0  0
  6  1  1  0  0  0  0
  7  6  1  0  0  0  0
  8 13  1  0  0  0  0
  9  8  2  0  0  0  0
  9 10  1  0  0  0  0
 10 11  2  0  0  0  0
 11 12  1  0  0  0  0
 13  3  1  0  0  0  0
 13 12  2  0  0  0  0
 14 15  1  0  0  0  0
 15  8  1  0  0  0  0
 16 19  1  0  0  0  0
 16  2  2  0  0  0  0
 17 16  1  0  0  0  0
 18 17  2  0  0  0  0
 20 17  1  0  0  0  0
 20 25  1  0  0  0  0
 21 20  2  0  0  0  0
 22 21  1  0  0  0  0
 22 23  2  0  0  0  0
 23 24  1  0  0  0  0
 24 25  2  0  0  0  0
 26 27  1  0  0  0  0
 28 26  2  0  0  0  0
M  END
>  <minimizedAffinity>
-6.16418791

$$$$

 OpenBabel09122223423D

 28 30  0  0  0  0  0  0  0  0999 V2000
   10.7700    1.7460   -0.8260 C   0  0  0  0  0  2  0  0  0  0  0  0
   10.2260    2.4410    0.1940 C   0  0  0  0  0  0  0  0  0  0  0  0
   10.3290   -1.8220   -0.5450 C   0  0  0  0  0  0  0  0  0  0  0  0
   11.4350   -1.8160   -1.3630 C   0  0  0  0  0  3  0  0  0  0  0  0
   11.7510   -0.4560   -1.5960 C   0  0  0  0  0  3  0  0  0  0  0  0
   10.8330    0.3250   -0.9050 C   0  0  0  0  0  0  0  0  0  0  0  0
    9.9630   -0.5380   -0.2730 O   0  0  0  0  0  0  0  0  0  0  0  0
    9.1430   -2.8230    1.4290 C   0  0  0  0  0  0  0  0  0  0  0  0
    8.4140   -3.8670    2.0100 C   0  0  0  0  0  3  0  0  0  0  0  0
    7.9970   -4.9440    1.2300 C   0  0  0  0  0  3  0  0  0  0  0  0
    8.3180   -4.9810   -0.1240 C   0  0  0  0  0  3  0  0  0  0  0  0
    9.0700   -3.9500   -0.6960 C   0  0  0  0  0  3  0  0  0  0  0  0
    9.5110   -2.8590    0.0740 C   0  0  0  0  0  0  0  0  0  0  0  0
    9.9540   -2.3030    3.5100 C   0  0  0  0  0  1  0  0  0  0  0  0
    9.5060   -1.7840    2.2540 O   0  0  0  0  0  0  0  0  0  0  0  0
    9.6820    1.8170    1.3100 N   0  0  0  0  0  4  0  0  0  0  0  0
    9.9500    1.9370    2.6530 C   0  0  0  0  0  0  0  0  0  0  0  0
    9.4900    1.1080    3.4450 O   0  0  0  0  0  0  0  0  0  0  0  0
    9.0040    1.0900    1.1120 H   0  0  0  0  0  0  0  0  0  0  0  0
   10.7000    3.0790    3.2120 C   0  0  0  0  0  0  0  0  0  0  0  0
   11.8890    2.8230    3.9080 C   0  0  0  0  0  3  0  0  0  0  0  0
   12.5810    3.8720    4.5150 C   0  0  0  0  0  3  0  0  0  0  0  0
   12.0790    5.1710    4.4440 C   0  0  0  0  0  3  0  0  0  0  0  0
   10.8800    5.4230    3.7750 C   0  0  0  0  0  3  0  0  0  0  0  0
   10.1820    4.3760    3.1700 C   0  0  0  0  0  3  0  0  0  0  0  0
   10.3910    3.9760   -0.0020 C   0  0  0  0  0  0  0  0  0  0  0  0
   11.5900    4.3870   -0.0120 O   0  0  0  0  0  1  0  0  0  0  0  0
    9.3090    4.6260   -0.0650 O   0  0  0  0  0  0  0  0  0  0  0  0
  1  2  1  0  0  0  0
  2 16  2  0  0  0  0
  3  7  1  0  0  0  0
  3 13  1  0  0  0  0
  4  3  2  0  0  0  0
  5  4  1  0  0  0  0
  5  6  2  0  0  0  0
  6  1  1  0  0  0  0
  6  7  1  0  0  0  0
  8  9  1  0  0  0  0
  8 15  1  0  0  0  0
 10  9  2  0  0  0  0
 11 10  1  0  0  0  0
 12 11  2  0  0  0  0
 12 13  1  0  0  0  0
 13  8  2  0  0  0  0
 15 14  1  0  0  0  0
 16 17  1  0  0  0  0
 17 20  1  0  0  0  0
 17 18  2  0  0  0  0
 19 16  1  0  0  0  0
 20 21  1  0  0  0  0
 21 22  2  0  0  0  0
 23 22  1  0  0  0  0
 24 23  2  0  0  0  0
 25 20  2  0  0  0  0
 25 24  1  0  0  0  0
 26  2  1  0  0  0  0
 27 26  1  0  0  0  0
 28 26  2  0  0  0  0
M  END
>  <minimizedAffinity>
-6.09028864

$$$$

 OpenBabel09122223423D

 28 30  0  0  0  0  0  0  0  0999 V2000
    9.4570   -2.1820    4.2300 C   0  0  0  0  0  2  0  0  0  0  0  0
    9.7250   -0.9250    4.6400 C   0  0  0  0  0  0  0  0  0  0  0  0
   10.0000   -2.8350    0.7250 C   0  0  0  0  0  0  0  0  0  0  0  0
    8.8260   -3.5340    0.8840 C   0  0  0  0  0  3  0  0  0  0  0  0
    8.4600   -3.3950    2.2440 C   0  0  0  0  0  3  0  0  0  0  0  0
    9.4190   -2.6070    2.8700 C   0  0  0  0  0  0  0  0  0  0  0  0
   10.3600   -2.2820    1.9170 O   0  0  0  0  0  0  0  0  0  0  0  0
   10.9380   -1.3140   -1.0390 C   0  0  0  0  0  0  0  0  0  0  0  0
   11.7560   -1.1040   -2.1550 C   0  0  0  0  0  3  0  0  0  0  0  0
   12.5830   -2.1260   -2.6160 C   0  0  0  0  0  3  0  0  0  0  0  0
   12.5820   -3.3590   -1.9700 C   0  0  0  0  0  3  0  0  0  0  0  0
   11.7440   -3.5750   -0.8720 C   0  0  0  0  0  3  0  0  0  0  0  0
   10.8930   -2.5620   -0.3960 C   0  0  0  0  0  0  0  0  0  0  0  0
   10.7250    0.9680   -1.1120 C   0  0  0  0  0  1  0  0  0  0  0  0
   10.1610   -0.2560   -0.6280 O   0  0  0  0  0  0  0  0  0  0  0  0
    9.9720    0.1100    3.7470 N   0  0  0  0  0  4  0  0  0  0  0  0
   10.2770    1.4360    3.9390 C   0  0  0  0  0  0  0  0  0  0  0  0
   10.2310    2.2190    2.9840 O   0  0  0  0  0  0  0  0  0  0  0  0
    9.8450   -0.1230    2.7680 H   0  0  0  0  0  0  0  0  0  0  0  0
   10.7530    1.9610    5.2340 C   0  0  0  0  0  0  0  0  0  0  0  0
    9.8600    2.6870    6.0310 C   0  0  0  0  0  3  0  0  0  0  0  0
   10.2990    3.2620    7.2250 C   0  0  0  0  0  3  0  0  0  0  0  0
   11.6320    3.1280    7.6130 C   0  0  0  0  0  3  0  0  0  0  0  0
   12.5290    2.4280    6.8060 C   0  0  0  0  0  3  0  0  0  0  0  0
   12.0960    1.8550    5.6090 C   0  0  0  0  0  3  0  0  0  0  0  0
    9.6110   -0.7880    6.1860 C   0  0  0  0  0  0  0  0  0  0  0  0
   10.6700   -1.0610    6.8250 O   0  0  0  0  0  1  0  0  0  0  0  0
    8.4620   -0.4800    6.6110 O   0  0  0  0  0  0  0  0  0  0  0  0
  1  2  1  0  0  0  0
  2 26  1  0  0  0  0
  3  4  2  0  0  0  0
  3  7  1  0  0  0  0
  4  5  1  0  0  0  0
  5  6  2  0  0  0  0
  6  1  1  0  0  0  0
  7  6  1  0  0  0  0
  8 15  1  0  0  0  0
  8 13  1  0  0  0  0
  9  8  2  0  0  0  0
 10  9  1  0  0  0  0
 10 11  2  0  0  0  0
 11 12  1  0  0  0  0
 12 13  2  0  0  0  0
 13  3  1  0  0  0  0
 14 15  1  0  0  0  0
 16 17  1  0  0  0  0
 16  2  2  0  0  0  0
 17 20  1  0  0  0  0
 18 17  2  0  0  0  0
 19 16  1  0  0  0  0
 20 25  2  0  0  0  0
 20 21  1  0  0  0  0
 21 22  2  0  0  0  0
 22 23  1  0  0  0  0
 24 23  2  0  0  0  0
 25 24  1  0  0  0  0
 26 28  2  0  0  0  0
 26 27  1  0  0  0  0
M  END
>  <minimizedAffinity>
-6.00443602

$$$$
