
 OpenBabel09132204463D

 28 30  0  0  0  0  0  0  0  0999 V2000
    8.9990   -0.8640    2.2090 C   0  0  0  0  0  2  0  0  0  0  0  0
    9.3780   -2.0610    2.7020 C   0  0  0  0  0  0  0  0  0  0  0  0
   10.3360    1.9750    3.9870 C   0  0  0  0  0  0  0  0  0  0  0  0
   10.1810    2.5610    2.7520 C   0  0  0  0  0  3  0  0  0  0  0  0
    9.6630    1.5590    1.8970 C   0  0  0  0  0  3  0  0  0  0  0  0
    9.5090    0.3950    2.6410 C   0  0  0  0  0  0  0  0  0  0  0  0
    9.9370    0.6740    3.9220 O   0  0  0  0  0  0  0  0  0  0  0  0
   10.0070    3.2160    6.1450 C   0  0  0  0  0  0  0  0  0  0  0  0
   10.5050    3.6940    7.3630 C   0  0  0  0  0  3  0  0  0  0  0  0
   11.7920    3.3510    7.7720 C   0  0  0  0  0  3  0  0  0  0  0  0
   12.5820    2.5420    6.9590 C   0  0  0  0  0  3  0  0  0  0  0  0
   12.0910    2.0880    5.7310 C   0  0  0  0  0  3  0  0  0  0  0  0
   10.8000    2.4310    5.2930 C   0  0  0  0  0  0  0  0  0  0  0  0
    7.9050    3.5770    6.9880 C   0  0  0  0  0  1  0  0  0  0  0  0
    8.7220    3.5790    5.8130 O   0  0  0  0  0  0  0  0  0  0  0  0
   10.3090   -2.1820    3.7260 N   0  0  0  0  0  4  0  0  0  0  0  0
   10.2110   -1.9980    5.0840 C   0  0  0  0  0  0  0  0  0  0  0  0
   11.2370   -1.9440    5.7700 O   0  0  0  0  0  0  0  0  0  0  0  0
   11.2570   -2.3800    3.4270 H   0  0  0  0  0  0  0  0  0  0  0  0
    8.9130   -1.9500    5.7860 C   0  0  0  0  0  0  0  0  0  0  0  0
    8.6770   -0.9040    6.6870 C   0  0  0  0  0  3  0  0  0  0  0  0
    7.4920   -0.8720    7.4240 C   0  0  0  0  0  3  0  0  0  0  0  0
    6.5520   -1.8920    7.2760 C   0  0  0  0  0  3  0  0  0  0  0  0
    6.7990   -2.9490    6.3980 C   0  0  0  0  0  3  0  0  0  0  0  0
    7.9840   -2.9880    5.6630 C   0  0  0  0  0  3  0  0  0  0  0  0
    8.5710   -3.2280    2.0620 C   0  0  0  0  0  0  0  0  0  0  0  0
    7.7020   -3.7540    2.8180 O   0  0  0  0  0  1  0  0  0  0  0  0
    8.9260   -3.5420    0.8900 O   0  0  0  0  0  0  0  0  0  0  0  0
  1  6  1  0  0  0  0
  1  2  1  0  0  0  0
  2 16  2  0  0  0  0
  3 13  1  0  0  0  0
  4  3  2  0  0  0  0
  5  6  2  0  0  0  0
  5  4  1  0  0  0  0
  6  7  1  0  0  0  0
  7  3  1  0  0  0  0
  8  9  1  0  0  0  0
  9 10  2  0  0  0  0
 11 10  1  0  0  0  0
 12 11  2  0  0  0  0
 13 12  1  0  0  0  0
 13  8  2  0  0  0  0
 15  8  1  0  0  0  0
 15 14  1  0  0  0  0
 16 17  1  0  0  0  0
 17 18  2  0  0  0  0
 17 20  1  0  0  0  0
 19 16  1  0  0  0  0
 20 21  1  0  0  0  0
 21 22  2  0  0  0  0
 23 22  1  0  0  0  0
 24 23  2  0  0  0  0
 25 20  2  0  0  0  0
 25 24  1  0  0  0  0
 26  2  1  0  0  0  0
 26 27  1  0  0  0  0
 28 26  2  0  0  0  0
M  END
>  <minimizedAffinity>
-6.28043747

$$$$
