
 OpenBabel09122222393D

 48 52  0  0  1  0  0  0  0  0999 V2000
    1.8240   -8.0220    3.8770 C   0  0  1  0  0  3  0  0  0  0  0  0
    1.6380   -6.9370    4.5860 N   0  0  0  0  0  0  0  0  0  0  0  0
    0.3200   -6.5910    5.4220 S   0  0  0  0  0  0  0  0  0  0  0  0
    0.6390   -6.2720    6.8000 O   0  0  0  0  0  0  0  0  0  0  0  0
   -0.4520   -5.6130    4.6680 O   0  0  0  0  0  0  0  0  0  0  0  0
   -0.6890   -8.0290    5.4080 C   0  0  0  0  0  0  0  0  0  0  0  0
   -1.7650   -8.1330    6.2890 C   0  0  0  0  0  3  0  0  0  0  0  0
   -2.5600   -9.2720    6.2310 C   0  0  0  0  0  0  0  0  0  0  0  0
   -2.3610  -10.2200    5.2260 C   0  0  0  0  0  3  0  0  0  0  0  0
   -1.2690  -10.1030    4.3640 C   0  0  0  0  0  3  0  0  0  0  0  0
   -0.3790   -9.0360    4.5020 C   0  0  0  0  0  0  0  0  0  0  0  0
    0.8030   -9.0000    3.7730 N   0  0  0  0  0  0  0  0  0  0  0  0
    2.3740   -6.2470    4.5930 H   0  0  0  0  0  0  0  0  0  0  0  0
    1.0810   -9.8510    3.2840 H   0  0  0  0  0  0  0  0  0  0  0  0
    5.0290   -6.7720    2.6940 N   0  0  0  0  0  0  0  0  0  0  0  0
    4.2640   -7.4820    3.6000 C   0  0  0  0  0  0  0  0  0  0  0  0
    4.3920   -7.4020    4.8240 O   0  0  0  0  0  0  0  0  0  0  0  0
    3.0560   -8.1590    3.0330 C   0  0  2  0  0  3  0  0  0  0  0  0
    3.0780   -8.4980    1.7330 C   0  0  2  0  0  3  0  0  0  0  0  0
    4.2280   -8.1520    0.8890 C   0  0  0  0  0  0  0  0  0  0  0  0
    4.3870   -8.6350   -0.4120 C   0  0  0  0  0  3  0  0  0  0  0  0
    5.4190   -8.1460   -1.2060 C   0  0  0  0  0  3  0  0  0  0  0  0
    6.2440   -7.1700   -0.6770 C   0  0  0  0  0  3  0  0  0  0  0  0
    6.1210   -6.6800    0.5750 N   0  0  0  0  0  0  0  0  0  0  0  0
    5.1360   -7.1940    1.3500 C   0  0  0  0  0  0  0  0  0  0  0  0
    2.0080   -9.0640    1.0670 O   0  0  0  0  0  0  0  0  0  0  0  0
    1.6110   -9.7880    1.6450 H   0  0  0  0  0  0  0  0  0  0  0  0
    5.6280   -5.5110    3.1100 C   0  0  0  0  0  2  0  0  0  0  0  0
    4.5600   -4.3940    3.2270 C   0  0  0  0  0  2  0  0  0  0  0  0
    5.3110   -3.3930    5.4250 C   0  0  0  0  0  1  0  0  0  0  0  0
    4.1380   -4.0240    4.6680 C   0  0  0  0  0  3  0  0  0  0  0  0
    2.9330   -3.0870    4.6930 C   0  0  0  0  0  1  0  0  0  0  0  0
   -3.5320   -9.5490    7.2410 N   0  0  0  0  0  0  0  0  0  0  0  0
   -4.4480   -9.1730    6.9850 H   0  0  0  0  0  0  0  0  0  0  0  0
   -3.2200   -8.9220    8.7920 S   0  0  0  0  0  0  0  0  0  0  0  0
   -2.9650   -7.5080    8.6910 O   0  0  0  0  0  0  0  0  0  0  0  0
   -4.3250   -9.4010    9.5940 O   0  0  0  0  0  0  0  0  0  0  0  0
   -1.8880   -9.7600    9.3270 N   0  0  0  0  0  0  0  0  0  0  0  0
   -2.0190  -10.7580    9.1810 H   0  0  0  0  0  0  0  0  0  0  0  0
   -0.5390   -9.2910    9.3090 C   0  0  0  0  0  0  0  0  0  0  0  0
    0.4380  -10.2200    8.9280 C   0  0  0  0  0  3  0  0  0  0  0  0
    1.7810   -9.8540    8.8470 C   0  0  0  0  0  3  0  0  0  0  0  0
    2.1590   -8.5460    9.1400 C   0  0  0  0  0  3  0  0  0  0  0  0
    1.2070   -7.5990    9.5540 C   0  0  0  0  0  0  0  0  0  0  0  0
   -0.1370   -8.0100    9.6980 C   0  0  0  0  0  3  0  0  0  0  0  0
    1.6010   -6.1460    9.7040 C   0  0  0  0  0  0  0  0  0  0  0  0
    2.8490   -5.8670    9.6640 O   0  0  0  0  0  0  0  0  0  0  0  0
    0.6860   -5.2660    9.7040 O   0  0  0  0  0  1  0  0  0  0  0  0
  1 12  1  6  0  0  0
  1  2  1  0  0  0  0
  2 13  1  0  0  0  0
  2  3  1  0  0  0  0
  3  4  2  0  0  0  0
  5  3  2  0  0  0  0
  6  3  1  0  0  0  0
  6  7  1  0  0  0  0
  8  7  2  0  0  0  0
  8 33  1  0  0  0  0
  9  8  1  0  0  0  0
 10 11  1  0  0  0  0
 10  9  2  0  0  0  0
 11  6  2  0  0  0  0
 12 11  1  0  0  0  0
 14 12  1  0  0  0  0
 15 28  1  0  0  0  0
 15 16  1  0  0  0  0
 16 17  2  0  0  0  0
 18 16  1  6  0  0  0
 18  1  1  0  0  0  0
 19 26  1  6  0  0  0
 19 18  1  0  0  0  0
 20 25  1  0  0  0  0
 20 19  1  0  0  0  0
 21 20  2  0  0  0  0
 22 23  2  0  0  0  0
 22 21  1  0  0  0  0
 23 24  1  0  0  0  0
 24 25  2  0  0  0  0
 25 15  1  0  0  0  0
 26 27  1  0  0  0  0
 28 29  1  0  0  0  0
 29 31  1  0  0  0  0
 31 32  1  0  0  0  0
 31 30  1  0  0  0  0
 33 35  1  0  0  0  0
 34 33  1  0  0  0  0
 35 38  1  0  0  0  0
 35 37  2  0  0  0  0
 36 35  2  0  0  0  0
 39 38  1  0  0  0  0
 40 38  1  0  0  0  0
 40 45  1  0  0  0  0
 41 40  2  0  0  0  0
 42 41  1  0  0  0  0
 42 43  2  0  0  0  0
 43 44  1  0  0  0  0
 44 45  2  0  0  0  0
 44 46  1  0  0  0  0
 46 48  1  0  0  0  0
 47 46  2  0  0  0  0
M  END
>  <minimizedAffinity>
-3.62622333

$$$$
