
 OpenBabel09122222393D

 48 52  0  0  1  0  0  0  0  0999 V2000
    1.1860   -9.6200    5.6080 C   0  0  1  0  0  3  0  0  0  0  0  0
    2.0740   -9.0090    6.3520 N   0  0  0  0  0  0  0  0  0  0  0  0
    3.5630   -8.6410    5.9030 S   0  0  0  0  0  0  0  0  0  0  0  0
    3.8430   -7.2340    6.1130 O   0  0  0  0  0  0  0  0  0  0  0  0
    4.4710   -9.6030    6.5080 O   0  0  0  0  0  0  0  0  0  0  0  0
    3.6770   -8.9750    4.1810 C   0  0  0  0  0  0  0  0  0  0  0  0
    4.7570   -8.4840    3.4480 C   0  0  0  0  0  3  0  0  0  0  0  0
    4.8310   -8.7930    2.0940 C   0  0  0  0  0  0  0  0  0  0  0  0
    3.9170   -9.6790    1.5220 C   0  0  0  0  0  3  0  0  0  0  0  0
    2.8360  -10.1460    2.2720 C   0  0  0  0  0  3  0  0  0  0  0  0
    2.6710   -9.7320    3.5940 C   0  0  0  0  0  0  0  0  0  0  0  0
    1.5120  -10.0440    4.2960 N   0  0  0  0  0  0  0  0  0  0  0  0
    1.8120   -8.7690    7.2960 H   0  0  0  0  0  0  0  0  0  0  0  0
    0.7270  -10.4170    3.7640 H   0  0  0  0  0  0  0  0  0  0  0  0
   -2.4460   -9.4390    5.7230 N   0  0  0  0  0  0  0  0  0  0  0  0
   -1.2740   -9.9850    5.2360 C   0  0  0  0  0  0  0  0  0  0  0  0
   -1.0660  -10.2210    4.0440 O   0  0  0  0  0  0  0  0  0  0  0  0
   -0.1310  -10.0240    6.2010 C   0  0  2  0  0  3  0  0  0  0  0  0
   -0.4170  -10.0620    7.5130 C   0  0  2  0  0  3  0  0  0  0  0  0
   -1.8090  -10.0020    7.9770 C   0  0  0  0  0  0  0  0  0  0  0  0
   -2.1750  -10.2200    9.3070 C   0  0  0  0  0  3  0  0  0  0  0  0
   -3.4890   -9.9970    9.7050 C   0  0  0  0  0  3  0  0  0  0  0  0
   -4.3880   -9.5360    8.7600 C   0  0  0  0  0  3  0  0  0  0  0  0
   -4.0700   -9.3140    7.4660 N   0  0  0  0  0  0  0  0  0  0  0  0
   -2.7960   -9.5740    7.0860 C   0  0  0  0  0  0  0  0  0  0  0  0
    0.5370  -10.0320    8.5100 O   0  0  0  0  0  0  0  0  0  0  0  0
    1.2870  -10.6600    8.2640 H   0  0  0  0  0  0  0  0  0  0  0  0
   -3.2610   -8.6130    4.8420 C   0  0  0  0  0  2  0  0  0  0  0  0
   -2.5220   -7.3060    4.4570 C   0  0  0  0  0  2  0  0  0  0  0  0
   -3.6270   -6.2170    6.4530 C   0  0  0  0  0  1  0  0  0  0  0  0
   -2.3610   -6.2700    5.5940 C   0  0  0  0  0  3  0  0  0  0  0  0
   -1.1450   -6.5600    6.4690 C   0  0  0  0  0  1  0  0  0  0  0  0
    5.7760   -8.1470    1.2380 N   0  0  0  0  0  0  0  0  0  0  0  0
    6.4630   -7.6170    1.7790 H   0  0  0  0  0  0  0  0  0  0  0  0
    5.1490   -7.0300    0.1170 S   0  0  0  0  0  0  0  0  0  0  0  0
    5.6920   -7.3090   -1.1870 O   0  0  0  0  0  0  0  0  0  0  0  0
    3.7190   -7.0820    0.3310 O   0  0  0  0  0  0  0  0  0  0  0  0
    5.6280   -5.5440    0.6880 N   0  0  0  0  0  0  0  0  0  0  0  0
    5.6790   -4.8740   -0.0760 H   0  0  0  0  0  0  0  0  0  0  0  0
    5.3370   -5.0070    1.9800 C   0  0  0  0  0  0  0  0  0  0  0  0
    6.4120   -4.4340    2.6720 C   0  0  0  0  0  3  0  0  0  0  0  0
    6.2280   -3.8540    3.9260 C   0  0  0  0  0  3  0  0  0  0  0  0
    4.9580   -3.8340    4.4980 C   0  0  0  0  0  3  0  0  0  0  0  0
    3.8660   -4.4270    3.8420 C   0  0  0  0  0  0  0  0  0  0  0  0
    4.0890   -5.0720    2.6050 C   0  0  0  0  0  3  0  0  0  0  0  0
    2.4670   -4.2500    4.3900 C   0  0  0  0  0  0  0  0  0  0  0  0
    1.7990   -5.3100    4.6510 O   0  0  0  0  0  0  0  0  0  0  0  0
    2.0830   -3.0840    4.7120 O   0  0  0  0  0  1  0  0  0  0  0  0
  1 12  1  1  0  0  0
  1 18  1  0  0  0  0
  1  2  1  0  0  0  0
  2 13  1  0  0  0  0
  3  4  2  0  0  0  0
  3  2  1  0  0  0  0
  3  5  2  0  0  0  0
  6  3  1  0  0  0  0
  7  6  2  0  0  0  0
  8  7  1  0  0  0  0
  9  8  2  0  0  0  0
  9 10  1  0  0  0  0
 10 11  2  0  0  0  0
 11  6  1  0  0  0  0
 11 12  1  0  0  0  0
 14 12  1  0  0  0  0
 15 25  1  0  0  0  0
 16 15  1  0  0  0  0
 17 16  2  0  0  0  0
 18 16  1  6  0  0  0
 18 19  1  0  0  0  0
 19 20  1  0  0  0  0
 19 26  1  1  0  0  0
 20 21  1  0  0  0  0
 21 22  2  0  0  0  0
 23 22  1  0  0  0  0
 24 23  2  0  0  0  0
 25 24  1  0  0  0  0
 25 20  2  0  0  0  0
 27 26  1  0  0  0  0
 28 15  1  0  0  0  0
 29 28  1  0  0  0  0
 29 31  1  0  0  0  0
 31 30  1  0  0  0  0
 31 32  1  0  0  0  0
 33 34  1  0  0  0  0
 33  8  1  0  0  0  0
 35 37  2  0  0  0  0
 35 38  1  0  0  0  0
 35 33  1  0  0  0  0
 36 35  2  0  0  0  0
 38 40  1  0  0  0  0
 39 38  1  0  0  0  0
 40 45  2  0  0  0  0
 40 41  1  0  0  0  0
 41 42  2  0  0  0  0
 42 43  1  0  0  0  0
 44 46  1  0  0  0  0
 44 43  2  0  0  0  0
 45 44  1  0  0  0  0
 46 47  2  0  0  0  0
 46 48  1  0  0  0  0
M  END
>  <minimizedAffinity>
-6.10623407

$$$$
