
 OpenBabel09122222393D

 48 52  0  0  1  0  0  0  0  0999 V2000
    4.0390   -6.0220    6.2880 C   0  0  1  0  0  3  0  0  0  0  0  0
    4.2610   -6.3310    5.0350 N   0  0  0  0  0  0  0  0  0  0  0  0
    3.5550   -7.5200    4.2350 S   0  0  0  0  0  0  0  0  0  0  0  0
    2.9570   -7.0440    3.0030 O   0  0  0  0  0  0  0  0  0  0  0  0
    4.4970   -8.6270    4.1410 O   0  0  0  0  0  0  0  0  0  0  0  0
    2.2740   -8.1420    5.2650 C   0  0  0  0  0  0  0  0  0  0  0  0
    1.2990   -8.9840    4.7310 C   0  0  0  0  0  3  0  0  0  0  0  0
    0.3170   -9.4810    5.5810 C   0  0  0  0  0  0  0  0  0  0  0  0
    0.3890   -9.2450    6.9550 C   0  0  0  0  0  3  0  0  0  0  0  0
    1.3650   -8.3870    7.4640 C   0  0  0  0  0  3  0  0  0  0  0  0
    2.2720   -7.7680    6.6030 C   0  0  0  0  0  0  0  0  0  0  0  0
    3.1320   -6.7800    7.0680 N   0  0  0  0  0  0  0  0  0  0  0  0
    4.9510   -5.7930    4.5330 H   0  0  0  0  0  0  0  0  0  0  0  0
    2.9520   -6.4000    7.9980 H   0  0  0  0  0  0  0  0  0  0  0  0
    4.4500   -3.3660    8.7410 N   0  0  0  0  0  0  0  0  0  0  0  0
    4.4950   -4.6980    8.3770 C   0  0  0  0  0  0  0  0  0  0  0  0
    4.0460   -5.6170    9.0650 O   0  0  0  0  0  0  0  0  0  0  0  0
    4.8700   -4.9650    6.9540 C   0  0  2  0  0  3  0  0  0  0  0  0
    5.6230   -4.0500    6.3190 C   0  0  2  0  0  3  0  0  0  0  0  0
    6.0050   -2.8020    6.9900 C   0  0  0  0  0  0  0  0  0  0  0  0
    6.9310   -1.9040    6.4530 C   0  0  0  0  0  3  0  0  0  0  0  0
    7.1310   -0.6720    7.0660 C   0  0  0  0  0  3  0  0  0  0  0  0
    6.3760   -0.3700    8.1850 C   0  0  0  0  0  3  0  0  0  0  0  0
    5.4730   -1.2110    8.7320 N   0  0  0  0  0  0  0  0  0  0  0  0
    5.3190   -2.4230    8.1470 C   0  0  0  0  0  0  0  0  0  0  0  0
    5.9830   -4.1380    4.9890 O   0  0  0  0  0  0  0  0  0  0  0  0
    6.2800   -5.0810    4.7930 H   0  0  0  0  0  0  0  0  0  0  0  0
    3.4080   -2.9180    9.6560 C   0  0  0  0  0  2  0  0  0  0  0  0
    2.0310   -2.8470    8.9480 C   0  0  0  0  0  2  0  0  0  0  0  0
    2.3340   -0.3370    8.9780 C   0  0  0  0  0  1  0  0  0  0  0  0
    1.7240   -1.5180    8.2190 C   0  0  0  0  0  3  0  0  0  0  0  0
    2.2180   -1.5260    6.7750 C   0  0  0  0  0  1  0  0  0  0  0  0
   -0.8310  -10.1600    5.0680 N   0  0  0  0  0  0  0  0  0  0  0  0
   -0.5630  -10.8900    4.4040 H   0  0  0  0  0  0  0  0  0  0  0  0
   -1.9710   -9.2090    4.2370 S   0  0  0  0  0  0  0  0  0  0  0  0
   -1.3380   -8.5920    3.1000 O   0  0  0  0  0  0  0  0  0  0  0  0
   -3.0970  -10.0980    4.0430 O   0  0  0  0  0  0  0  0  0  0  0  0
   -2.4800   -8.0870    5.3530 N   0  0  0  0  0  0  0  0  0  0  0  0
   -2.8740   -7.2770    4.8820 H   0  0  0  0  0  0  0  0  0  0  0  0
   -2.9950   -8.3720    6.6550 C   0  0  0  0  0  0  0  0  0  0  0  0
   -2.2780   -7.8440    7.7370 C   0  0  0  0  0  3  0  0  0  0  0  0
   -2.7140   -8.0360    9.0470 C   0  0  0  0  0  3  0  0  0  0  0  0
   -3.8810   -8.7570    9.2870 C   0  0  0  0  0  3  0  0  0  0  0  0
   -4.6060   -9.3250    8.2250 C   0  0  0  0  0  0  0  0  0  0  0  0
   -4.1080   -9.1770    6.9120 C   0  0  0  0  0  3  0  0  0  0  0  0
   -5.9570   -9.9560    8.4830 C   0  0  0  0  0  0  0  0  0  0  0  0
   -6.2920  -10.1500    9.7030 O   0  0  0  0  0  1  0  0  0  0  0  0
   -6.7490  -10.1140    7.5040 O   0  0  0  0  0  0  0  0  0  0  0  0
  1  2  1  1  0  0  0
  1 18  1  0  0  0  0
  1 12  1  0  0  0  0
  3  2  1  0  0  0  0
  3  6  1  0  0  0  0
  4  3  2  0  0  0  0
  5  3  2  0  0  0  0
  6 11  1  0  0  0  0
  7  6  2  0  0  0  0
  7  8  1  0  0  0  0
  8  9  2  0  0  0  0
  9 10  1  0  0  0  0
 11 12  1  0  0  0  0
 11 10  2  0  0  0  0
 12 14  1  0  0  0  0
 13  2  1  0  0  0  0
 15 28  1  0  0  0  0
 16 15  1  0  0  0  0
 16 17  2  0  0  0  0
 18 16  1  6  0  0  0
 19 26  1  6  0  0  0
 19 18  1  0  0  0  0
 19 20  1  0  0  0  0
 20 25  1  0  0  0  0
 21 20  2  0  0  0  0
 21 22  1  0  0  0  0
 22 23  2  0  0  0  0
 23 24  1  0  0  0  0
 25 24  2  0  0  0  0
 25 15  1  0  0  0  0
 27 26  1  0  0  0  0
 29 28  1  0  0  0  0
 31 29  1  0  0  0  0
 31 30  1  0  0  0  0
 32 31  1  0  0  0  0
 33  8  1  0  0  0  0
 34 33  1  0  0  0  0
 35 33  1  0  0  0  0
 35 38  1  0  0  0  0
 36 35  2  0  0  0  0
 37 35  2  0  0  0  0
 38 40  1  0  0  0  0
 39 38  1  0  0  0  0
 40 45  2  0  0  0  0
 40 41  1  0  0  0  0
 41 42  2  0  0  0  0
 42 43  1  0  0  0  0
 44 46  1  0  0  0  0
 44 43  2  0  0  0  0
 45 44  1  0  0  0  0
 46 47  1  0  0  0  0
 48 46  2  0  0  0  0
M  END
>  <minimizedAffinity>
-3.9415369

$$$$
