
 OpenBabel09122222393D

 48 52  0  0  1  0  0  0  0  0999 V2000
    0.1900   -7.8180    7.5860 C   0  0  1  0  0  3  0  0  0  0  0  0
    0.5970   -7.6510    6.3530 N   0  0  0  0  0  0  0  0  0  0  0  0
    1.7430   -6.6390    5.8850 S   0  0  0  0  0  0  0  0  0  0  0  0
    2.7580   -7.3180    5.1040 O   0  0  0  0  0  0  0  0  0  0  0  0
    1.1050   -5.4740    5.2900 O   0  0  0  0  0  0  0  0  0  0  0  0
    2.4980   -6.0100    7.3420 C   0  0  0  0  0  0  0  0  0  0  0  0
    3.7140   -5.3320    7.2580 C   0  0  0  0  0  3  0  0  0  0  0  0
    4.2680   -4.8210    8.4260 C   0  0  0  0  0  0  0  0  0  0  0  0
    3.5570   -4.8760    9.6260 C   0  0  0  0  0  3  0  0  0  0  0  0
    2.3490   -5.5730    9.6900 C   0  0  0  0  0  3  0  0  0  0  0  0
    1.8490   -6.2110    8.5540 C   0  0  0  0  0  0  0  0  0  0  0  0
    0.7450   -7.0520    8.6400 N   0  0  0  0  0  0  0  0  0  0  0  0
    0.1400   -8.1840    5.6290 H   0  0  0  0  0  0  0  0  0  0  0  0
    0.4360   -7.3260    9.5720 H   0  0  0  0  0  0  0  0  0  0  0  0
   -2.5520   -9.9280    6.4590 N   0  0  0  0  0  0  0  0  0  0  0  0
   -1.2310   -9.7480    6.8240 C   0  0  0  0  0  0  0  0  0  0  0  0
   -0.2740  -10.2170    6.2050 O   0  0  0  0  0  0  0  0  0  0  0  0
   -0.9870   -8.7040    7.8680 C   0  0  2  0  0  3  0  0  0  0  0  0
   -1.9850   -8.4270    8.7250 C   0  0  2  0  0  3  0  0  0  0  0  0
   -3.2890   -9.0870    8.5930 C   0  0  0  0  0  0  0  0  0  0  0  0
   -4.2960   -8.9790    9.5550 C   0  0  0  0  0  3  0  0  0  0  0  0
   -5.5570   -9.5030    9.2940 C   0  0  0  0  0  3  0  0  0  0  0  0
   -5.7760  -10.0960    8.0640 C   0  0  0  0  0  3  0  0  0  0  0  0
   -4.8280  -10.2190    7.1100 N   0  0  0  0  0  0  0  0  0  0  0  0
   -3.5930   -9.7400    7.3950 C   0  0  0  0  0  0  0  0  0  0  0  0
   -1.9180   -7.4420    9.6910 O   0  0  0  0  0  0  0  0  0  0  0  0
   -1.0220   -7.4950   10.1500 H   0  0  0  0  0  0  0  0  0  0  0  0
   -2.8690  -10.1940    5.0620 C   0  0  0  0  0  2  0  0  0  0  0  0
   -3.1260   -8.8780    4.2850 C   0  0  0  0  0  2  0  0  0  0  0  0
   -1.5890   -7.1020    3.3480 C   0  0  0  0  0  1  0  0  0  0  0  0
   -2.1770   -7.7050    4.6260 C   0  0  0  0  0  3  0  0  0  0  0  0
   -2.8720   -6.6210    5.4460 C   0  0  0  0  0  1  0  0  0  0  0  0
    5.6050   -4.3170    8.4530 N   0  0  0  0  0  0  0  0  0  0  0  0
    6.0700   -4.5510    9.3330 H   0  0  0  0  0  0  0  0  0  0  0  0
    5.7880   -2.6330    8.2980 S   0  0  0  0  0  0  0  0  0  0  0  0
    4.6040   -1.9780    8.7900 O   0  0  0  0  0  0  0  0  0  0  0  0
    7.0710   -2.3600    8.9080 O   0  0  0  0  0  0  0  0  0  0  0  0
    6.0090   -2.3800    6.6690 N   0  0  0  0  0  0  0  0  0  0  0  0
    6.9970   -2.2500    6.4660 H   0  0  0  0  0  0  0  0  0  0  0  0
    5.2150   -2.9340    5.6190 C   0  0  0  0  0  0  0  0  0  0  0  0
    3.9040   -2.4510    5.5090 C   0  0  0  0  0  3  0  0  0  0  0  0
    3.0580   -2.9020    4.4970 C   0  0  0  0  0  3  0  0  0  0  0  0
    3.5210   -3.8400    3.5770 C   0  0  0  0  0  3  0  0  0  0  0  0
    4.8200   -4.3650    3.6780 C   0  0  0  0  0  0  0  0  0  0  0  0
    5.6370   -3.9470    4.7520 C   0  0  0  0  0  3  0  0  0  0  0  0
    5.3670   -5.2490    2.5790 C   0  0  0  0  0  0  0  0  0  0  0  0
    6.6040   -5.1170    2.2790 O   0  0  0  0  0  1  0  0  0  0  0  0
    4.6290   -6.1750    2.1210 O   0  0  0  0  0  0  0  0  0  0  0  0
  1  2  1  6  0  0  0
  1 18  1  0  0  0  0
  1 12  1  0  0  0  0
  3  2  1  0  0  0  0
  3  6  1  0  0  0  0
  4  3  2  0  0  0  0
  5  3  2  0  0  0  0
  6 11  1  0  0  0  0
  7  6  2  0  0  0  0
  7  8  1  0  0  0  0
  8 33  1  0  0  0  0
  8  9  2  0  0  0  0
  9 10  1  0  0  0  0
 11 12  1  0  0  0  0
 11 10  2  0  0  0  0
 12 14  1  0  0  0  0
 13  2  1  0  0  0  0
 15 16  1  0  0  0  0
 15 25  1  0  0  0  0
 17 16  2  0  0  0  0
 18 16  1  6  0  0  0
 18 19  1  0  0  0  0
 19 26  1  6  0  0  0
 20 19  1  0  0  0  0
 20 21  1  0  0  0  0
 22 21  2  0  0  0  0
 23 22  1  0  0  0  0
 24 25  1  0  0  0  0
 24 23  2  0  0  0  0
 25 20  2  0  0  0  0
 26 27  1  0  0  0  0
 28 15  1  0  0  0  0
 29 31  1  0  0  0  0
 29 28  1  0  0  0  0
 30 31  1  0  0  0  0
 31 32  1  0  0  0  0
 33 34  1  0  0  0  0
 35 33  1  0  0  0  0
 35 36  2  0  0  0  0
 35 37  2  0  0  0  0
 38 35  1  0  0  0  0
 39 38  1  0  0  0  0
 40 38  1  0  0  0  0
 41 40  1  0  0  0  0
 42 41  2  0  0  0  0
 43 44  2  0  0  0  0
 43 42  1  0  0  0  0
 44 45  1  0  0  0  0
 45 40  2  0  0  0  0
 46 44  1  0  0  0  0
 47 46  1  0  0  0  0
 48 46  2  0  0  0  0
M  END
>  <minimizedAffinity>
-5.40406084

$$$$
