
 OpenBabel09122222393D

 48 52  0  0  1  0  0  0  0  0999 V2000
    2.9160   -7.4200    5.4010 C   0  0  1  0  0  3  0  0  0  0  0  0
    3.3220   -7.9370    6.5330 N   0  0  0  0  0  0  0  0  0  0  0  0
    2.4480   -8.0500    7.8660 S   0  0  0  0  0  0  0  0  0  0  0  0
    2.4270   -9.4100    8.3690 O   0  0  0  0  0  0  0  0  0  0  0  0
    2.8780   -7.0030    8.7820 O   0  0  0  0  0  0  0  0  0  0  0  0
    0.8050   -7.5940    7.4420 C   0  0  0  0  0  0  0  0  0  0  0  0
   -0.2430   -7.8700    8.3210 C   0  0  0  0  0  3  0  0  0  0  0  0
   -1.5260   -7.4690    7.9670 C   0  0  0  0  0  0  0  0  0  0  0  0
   -1.7320   -6.6940    6.8240 C   0  0  0  0  0  3  0  0  0  0  0  0
   -0.6710   -6.4430    5.9520 C   0  0  0  0  0  3  0  0  0  0  0  0
    0.5960   -6.9600    6.2240 C   0  0  0  0  0  0  0  0  0  0  0  0
    1.6160   -6.8700    5.2840 N   0  0  0  0  0  0  0  0  0  0  0  0
    4.2720   -8.2740    6.5830 H   0  0  0  0  0  0  0  0  0  0  0  0
    1.3600   -6.5850    4.3390 H   0  0  0  0  0  0  0  0  0  0  0  0
    4.7590   -5.3280    3.0640 N   0  0  0  0  0  0  0  0  0  0  0  0
    4.6330   -5.9600    4.2860 C   0  0  0  0  0  0  0  0  0  0  0  0
    4.8940   -5.4290    5.3680 O   0  0  0  0  0  0  0  0  0  0  0  0
    3.8850   -7.2550    4.2680 C   0  0  2  0  0  3  0  0  0  0  0  0
    3.8730   -7.9580    3.1220 C   0  0  2  0  0  3  0  0  0  0  0  0
    4.5210   -7.4310    1.9150 C   0  0  0  0  0  0  0  0  0  0  0  0
    4.6990   -8.1910    0.7560 C   0  0  0  0  0  3  0  0  0  0  0  0
    5.1820   -7.5840   -0.3980 C   0  0  0  0  0  3  0  0  0  0  0  0
    5.4470   -6.2270   -0.3590 C   0  0  0  0  0  3  0  0  0  0  0  0
    5.2870   -5.4610    0.7410 N   0  0  0  0  0  0  0  0  0  0  0  0
    4.8540   -6.0750    1.8680 C   0  0  0  0  0  0  0  0  0  0  0  0
    3.1670   -9.1320    2.9460 O   0  0  0  0  0  0  0  0  0  0  0  0
    3.3040   -9.7190    3.7540 H   0  0  0  0  0  0  0  0  0  0  0  0
    4.6680   -3.8750    3.0070 C   0  0  0  0  0  2  0  0  0  0  0  0
    4.4200   -3.2720    4.4130 C   0  0  0  0  0  2  0  0  0  0  0  0
    1.9220   -3.6640    4.4250 C   0  0  0  0  0  1  0  0  0  0  0  0
    3.0310   -2.6280    4.6280 C   0  0  0  0  0  3  0  0  0  0  0  0
    2.9020   -1.9830    6.0050 C   0  0  0  0  0  1  0  0  0  0  0  0
   -2.6700   -7.9110    8.7010 N   0  0  0  0  0  0  0  0  0  0  0  0
   -2.6370   -7.5820    9.6690 H   0  0  0  0  0  0  0  0  0  0  0  0
   -2.8960   -9.5930    8.8200 S   0  0  0  0  0  0  0  0  0  0  0  0
   -1.6440  -10.2200    9.1580 O   0  0  0  0  0  0  0  0  0  0  0  0
   -4.0360   -9.7340    9.7000 O   0  0  0  0  0  0  0  0  0  0  0  0
   -3.4380  -10.0540    7.3170 N   0  0  0  0  0  0  0  0  0  0  0  0
   -4.4530  -10.1150    7.3140 H   0  0  0  0  0  0  0  0  0  0  0  0
   -2.8210   -9.7360    6.0680 C   0  0  0  0  0  0  0  0  0  0  0  0
   -3.5610   -8.9270    5.1960 C   0  0  0  0  0  3  0  0  0  0  0  0
   -3.0360   -8.5320    3.9670 C   0  0  0  0  0  3  0  0  0  0  0  0
   -1.7560   -8.9390    3.6000 C   0  0  0  0  0  3  0  0  0  0  0  0
   -1.0000   -9.7750    4.4400 C   0  0  0  0  0  0  0  0  0  0  0  0
   -1.5790  -10.2210    5.6490 C   0  0  0  0  0  3  0  0  0  0  0  0
    0.4480  -10.0690    4.1110 C   0  0  0  0  0  0  0  0  0  0  0  0
    0.7820  -10.0690    2.8760 O   0  0  0  0  0  0  0  0  0  0  0  0
    1.2830  -10.1430    5.0630 O   0  0  0  0  0  1  0  0  0  0  0  0
  1 12  1  1  0  0  0
  1  2  1  0  0  0  0
  2 13  1  0  0  0  0
  2  3  1  0  0  0  0
  3  4  2  0  0  0  0
  3  5  2  0  0  0  0
  6  3  1  0  0  0  0
  6  7  1  0  0  0  0
  8  7  2  0  0  0  0
  8 33  1  0  0  0  0
  9  8  1  0  0  0  0
 10 11  1  0  0  0  0
 10  9  2  0  0  0  0
 11  6  2  0  0  0  0
 12 11  1  0  0  0  0
 14 12  1  0  0  0  0
 15 16  1  0  0  0  0
 16 17  2  0  0  0  0
 18 16  1  6  0  0  0
 18  1  1  0  0  0  0
 19 26  1  6  0  0  0
 19 18  1  0  0  0  0
 20 19  1  0  0  0  0
 21 20  2  0  0  0  0
 22 23  2  0  0  0  0
 22 21  1  0  0  0  0
 23 24  1  0  0  0  0
 24 25  2  0  0  0  0
 25 20  1  0  0  0  0
 25 15  1  0  0  0  0
 26 27  1  0  0  0  0
 28 15  1  0  0  0  0
 28 29  1  0  0  0  0
 29 31  1  0  0  0  0
 30 31  1  0  0  0  0
 31 32  1  0  0  0  0
 33 35  1  0  0  0  0
 33 34  1  0  0  0  0
 35 36  2  0  0  0  0
 35 37  2  0  0  0  0
 38 35  1  0  0  0  0
 39 38  1  0  0  0  0
 40 38  1  0  0  0  0
 41 40  2  0  0  0  0
 42 41  1  0  0  0  0
 43 42  2  0  0  0  0
 43 44  1  0  0  0  0
 44 45  2  0  0  0  0
 45 40  1  0  0  0  0
 46 44  1  0  0  0  0
 46 48  1  0  0  0  0
 47 46  2  0  0  0  0
M  END
>  <minimizedAffinity>
-5.93959999

$$$$
