
 OpenBabel09122222393D

 48 52  0  0  1  0  0  0  0  0999 V2000
    3.1210   -7.5430    6.2700 C   0  0  1  0  0  3  0  0  0  0  0  0
    2.2070   -7.6160    7.2060 N   0  0  0  0  0  0  0  0  0  0  0  0
    2.1540   -6.7120    8.5220 S   0  0  0  0  0  0  0  0  0  0  0  0
    0.8650   -6.0630    8.6650 O   0  0  0  0  0  0  0  0  0  0  0  0
    2.6320   -7.5100    9.6420 O   0  0  0  0  0  0  0  0  0  0  0  0
    3.3800   -5.4660    8.3380 C   0  0  0  0  0  0  0  0  0  0  0  0
    3.3790   -4.3590    9.1860 C   0  0  0  0  0  3  0  0  0  0  0  0
    4.3810   -3.4070    9.0320 C   0  0  0  0  0  0  0  0  0  0  0  0
    5.4310   -3.6270    8.1380 C   0  0  0  0  0  3  0  0  0  0  0  0
    5.4020   -4.7350    7.2890 C   0  0  0  0  0  3  0  0  0  0  0  0
    4.3290   -5.6260    7.3360 C   0  0  0  0  0  0  0  0  0  0  0  0
    4.1980   -6.6290    6.3840 N   0  0  0  0  0  0  0  0  0  0  0  0
    1.4860   -8.3140    7.1060 H   0  0  0  0  0  0  0  0  0  0  0  0
    4.7970   -6.5770    5.5600 H   0  0  0  0  0  0  0  0  0  0  0  0
    4.7330   -9.1320    3.4220 N   0  0  0  0  0  0  0  0  0  0  0  0
    4.4870   -9.0360    4.7790 C   0  0  0  0  0  0  0  0  0  0  0  0
    5.3600   -9.1140    5.6460 O   0  0  0  0  0  0  0  0  0  0  0  0
    3.1250   -8.5440    5.1540 C   0  0  2  0  0  3  0  0  0  0  0  0
    2.1220   -8.7460    4.2820 C   0  0  2  0  0  3  0  0  0  0  0  0
    2.3780   -9.3720    2.9800 C   0  0  0  0  0  0  0  0  0  0  0  0
    1.3550   -9.7710    2.1160 C   0  0  0  0  0  3  0  0  0  0  0  0
    1.6690  -10.2150    0.8360 C   0  0  0  0  0  3  0  0  0  0  0  0
    2.9990  -10.2210    0.4550 C   0  0  0  0  0  3  0  0  0  0  0  0
    4.0140   -9.8420    1.2620 N   0  0  0  0  0  0  0  0  0  0  0  0
    3.6950   -9.4500    2.5190 C   0  0  0  0  0  0  0  0  0  0  0  0
    0.8340   -8.2840    4.4710 O   0  0  0  0  0  0  0  0  0  0  0  0
    0.5580   -8.4690    5.4230 H   0  0  0  0  0  0  0  0  0  0  0  0
    6.0530   -8.7770    2.9170 C   0  0  0  0  0  2  0  0  0  0  0  0
    6.1230   -7.2770    2.5320 C   0  0  0  0  0  2  0  0  0  0  0  0
    6.0750   -7.4930    0.0130 C   0  0  0  0  0  1  0  0  0  0  0  0
    6.8640   -6.9610    1.2120 C   0  0  0  0  0  3  0  0  0  0  0  0
    7.1300   -5.4670    1.0450 C   0  0  0  0  0  1  0  0  0  0  0  0
    4.3170   -2.1480    9.7050 N   0  0  0  0  0  0  0  0  0  0  0  0
    4.0110   -2.2630   10.6740 H   0  0  0  0  0  0  0  0  0  0  0  0
    3.2630   -0.9850    9.0490 S   0  0  0  0  0  0  0  0  0  0  0  0
    1.9060   -1.4500    9.1700 O   0  0  0  0  0  0  0  0  0  0  0  0
    3.6630    0.2520    9.6850 O   0  0  0  0  0  0  0  0  0  0  0  0
    3.7330   -0.8370    7.4610 N   0  0  0  0  0  0  0  0  0  0  0  0
    4.7380   -0.6980    7.4030 H   0  0  0  0  0  0  0  0  0  0  0  0
    3.1190   -1.4790    6.3410 C   0  0  0  0  0  0  0  0  0  0  0  0
    1.8480   -1.0160    5.9780 C   0  0  0  0  0  3  0  0  0  0  0  0
    1.1770   -1.5530    4.8800 C   0  0  0  0  0  3  0  0  0  0  0  0
    1.7790   -2.5580    4.1280 C   0  0  0  0  0  3  0  0  0  0  0  0
    3.0400   -3.0650    4.4840 C   0  0  0  0  0  0  0  0  0  0  0  0
    3.6710   -2.5560    5.6410 C   0  0  0  0  0  3  0  0  0  0  0  0
    3.7550   -4.0310    3.5650 C   0  0  0  0  0  0  0  0  0  0  0  0
    4.6450   -3.5490    2.7820 O   0  0  0  0  0  0  0  0  0  0  0  0
    3.5580   -5.2750    3.7200 O   0  0  0  0  0  1  0  0  0  0  0  0
  1 12  1  1  0  0  0
  1  2  1  0  0  0  0
  2  3  1  0  0  0  0
  3  4  2  0  0  0  0
  3  5  2  0  0  0  0
  6  3  1  0  0  0  0
  6  7  1  0  0  0  0
  8  7  2  0  0  0  0
  8 33  1  0  0  0  0
  9  8  1  0  0  0  0
 10 11  1  0  0  0  0
 10  9  2  0  0  0  0
 11  6  2  0  0  0  0
 12 11  1  0  0  0  0
 13  2  1  0  0  0  0
 14 12  1  0  0  0  0
 15 16  1  0  0  0  0
 16 17  2  0  0  0  0
 18 16  1  6  0  0  0
 18  1  1  0  0  0  0
 19 26  1  6  0  0  0
 19 18  1  0  0  0  0
 20 19  1  0  0  0  0
 21 20  2  0  0  0  0
 22 21  1  0  0  0  0
 23 22  2  0  0  0  0
 23 24  1  0  0  0  0
 24 25  2  0  0  0  0
 25 20  1  0  0  0  0
 25 15  1  0  0  0  0
 26 27  1  0  0  0  0
 28 15  1  0  0  0  0
 29 28  1  0  0  0  0
 30 31  1  0  0  0  0
 31 29  1  0  0  0  0
 32 31  1  0  0  0  0
 33 34  1  0  0  0  0
 35 36  2  0  0  0  0
 35 37  2  0  0  0  0
 35 33  1  0  0  0  0
 38 35  1  0  0  0  0
 39 38  1  0  0  0  0
 40 38  1  0  0  0  0
 41 40  1  0  0  0  0
 42 41  2  0  0  0  0
 43 44  2  0  0  0  0
 43 42  1  0  0  0  0
 44 45  1  0  0  0  0
 45 40  2  0  0  0  0
 46 48  1  0  0  0  0
 46 44  1  0  0  0  0
 47 46  2  0  0  0  0
M  END
>  <minimizedAffinity>
-4.897295

$$$$
