
 OpenBabel09122222393D

 48 52  0  0  1  0  0  0  0  0999 V2000
    5.2120   -3.9040    6.1990 C   0  0  0  0  0  0  0  0  0  0  0  0
    4.3060   -4.8350    6.3590 N   0  0  0  0  0  0  0  0  0  0  0  0
    3.8170   -5.8570    5.2320 S   0  0  0  0  0  0  0  0  0  0  0  0
    3.9150   -7.2300    5.6870 O   0  0  0  0  0  0  0  0  0  0  0  0
    2.5260   -5.4040    4.7360 O   0  0  0  0  0  0  0  0  0  0  0  0
    4.8930   -5.6550    3.8560 C   0  0  0  0  0  0  0  0  0  0  0  0
    4.9020   -6.6050    2.8350 C   0  0  0  0  0  3  0  0  0  0  0  0
    5.7430   -6.3980    1.7470 C   0  0  0  0  0  0  0  0  0  0  0  0
    6.4580   -5.2050    1.6260 C   0  0  0  0  0  3  0  0  0  0  0  0
    6.4460   -4.2760    2.6680 C   0  0  0  0  0  3  0  0  0  0  0  0
    5.7150   -4.5350    3.8280 C   0  0  0  0  0  0  0  0  0  0  0  0
    5.8320   -3.7090    4.9400 N   0  0  0  0  0  0  0  0  0  0  0  0
    3.8570   -4.9060    7.2600 H   0  0  0  0  0  0  0  0  0  0  0  0
    6.5930   -3.0300    4.9430 H   0  0  0  0  0  0  0  0  0  0  0  0
    4.0620   -1.7860    8.9250 N   0  0  0  0  0  0  0  0  0  0  0  0
    4.5030   -3.0010    8.4360 C   0  0  0  0  0  0  0  0  0  0  0  0
    3.9890   -4.0860    8.7190 O   0  0  0  0  0  0  0  0  0  0  0  0
    5.4780   -2.9260    7.3040 C   0  0  0  0  0  0  0  0  0  0  0  0
    6.2410   -1.8230    7.2040 C   0  0  2  0  0  3  0  0  0  0  0  0
    6.0690   -0.7080    8.1420 C   0  0  0  0  0  0  0  0  0  0  0  0
    6.9480    0.3760    8.2020 C   0  0  0  0  0  3  0  0  0  0  0  0
    6.6410    1.4690    9.0050 C   0  0  0  0  0  3  0  0  0  0  0  0
    5.4480    1.4500    9.7050 C   0  0  0  0  0  3  0  0  0  0  0  0
    4.5740    0.4210    9.6720 N   0  0  0  0  0  0  0  0  0  0  0  0
    4.9070   -0.6530    8.9160 C   0  0  0  0  0  0  0  0  0  0  0  0
    7.1300   -1.5940    6.1730 O   0  0  0  0  0  0  0  0  0  0  0  0
    7.6530   -2.4380    5.9990 H   0  0  0  0  0  0  0  0  0  0  0  0
    2.6710   -1.6530    9.3370 C   0  0  0  0  0  2  0  0  0  0  0  0
    1.7370   -1.4830    8.1120 C   0  0  0  0  0  2  0  0  0  0  0  0
    2.3210   -2.1040    5.7310 C   0  0  0  0  0  1  0  0  0  0  0  0
    2.4250   -1.0200    6.8070 C   0  0  0  0  0  3  0  0  0  0  0  0
    1.8480    0.2940    6.2850 C   0  0  0  0  0  1  0  0  0  0  0  0
    5.9710   -7.4260    0.7810 N   0  0  0  0  0  0  0  0  0  0  0  0
    6.6420   -7.1240    0.0710 H   0  0  0  0  0  0  0  0  0  0  0  0
    4.6160   -7.9600   -0.0980 S   0  0  0  0  0  0  0  0  0  0  0  0
    3.5510   -7.0010    0.0390 O   0  0  0  0  0  0  0  0  0  0  0  0
    5.1460   -8.2680   -1.4090 O   0  0  0  0  0  0  0  0  0  0  0  0
    4.2250   -9.4280    0.5770 N   0  0  0  0  0  0  0  0  0  0  0  0
    4.8160  -10.1600    0.1920 H   0  0  0  0  0  0  0  0  0  0  0  0
    3.7430   -9.6390    1.9060 C   0  0  0  0  0  0  0  0  0  0  0  0
    4.6960  -10.0190    2.8600 C   0  0  0  0  0  3  0  0  0  0  0  0
    4.3360  -10.2180    4.1920 C   0  0  0  0  0  3  0  0  0  0  0  0
    3.0130  -10.0290    4.5840 C   0  0  0  0  0  3  0  0  0  0  0  0
    2.0280   -9.6760    3.6460 C   0  0  0  0  0  0  0  0  0  0  0  0
    2.4020   -9.5490    2.2900 C   0  0  0  0  0  3  0  0  0  0  0  0
    0.6360   -9.3080    4.1110 C   0  0  0  0  0  0  0  0  0  0  0  0
    0.4760   -8.1480    4.6270 O   0  0  0  0  0  1  0  0  0  0  0  0
   -0.3240  -10.0890    3.8280 O   0  0  0  0  0  0  0  0  0  0  0  0
  1  2  1  0  0  0  0
  1 18  2  0  0  0  0
  2 13  1  0  0  0  0
  3  4  2  0  0  0  0
  3  2  1  0  0  0  0
  5  3  2  0  0  0  0
  6  3  1  0  0  0  0
  7  6  2  0  0  0  0
  8  7  1  0  0  0  0
  9  8  2  0  0  0  0
  9 10  1  0  0  0  0
 10 11  2  0  0  0  0
 11  6  1  0  0  0  0
 11 12  1  0  0  0  0
 12 14  1  0  0  0  0
 12  1  1  0  0  0  0
 15 28  1  0  0  0  0
 16 17  2  0  0  0  0
 16 15  1  0  0  0  0
 18 16  1  0  0  0  0
 19 26  1  6  0  0  0
 19 18  1  0  0  0  0
 19 20  1  0  0  0  0
 20 21  2  0  0  0  0
 20 25  1  0  0  0  0
 21 22  1  0  0  0  0
 22 23  2  0  0  0  0
 24 23  1  0  0  0  0
 25 15  1  0  0  0  0
 25 24  2  0  0  0  0
 27 26  1  0  0  0  0
 29 28  1  0  0  0  0
 30 31  1  0  0  0  0
 31 29  1  0  0  0  0
 32 31  1  0  0  0  0
 33  8  1  0  0  0  0
 34 33  1  0  0  0  0
 35 36  2  0  0  0  0
 35 38  1  0  0  0  0
 35 33  1  0  0  0  0
 37 35  2  0  0  0  0
 38 40  1  0  0  0  0
 39 38  1  0  0  0  0
 40 45  2  0  0  0  0
 40 41  1  0  0  0  0
 41 42  2  0  0  0  0
 42 43  1  0  0  0  0
 44 46  1  0  0  0  0
 44 43  2  0  0  0  0
 45 44  1  0  0  0  0
 46 47  1  0  0  0  0
 48 46  2  0  0  0  0
M  END
>  <minimizedAffinity>
-5.45392704

$$$$
