
 OpenBabel09122222393D

 48 52  0  0  1  0  0  0  0  0999 V2000
    0.9970   -8.8090    6.3180 C   0  0  1  0  0  3  0  0  0  0  0  0
    1.6900   -8.1590    7.2190 N   0  0  0  0  0  0  0  0  0  0  0  0
    3.1010   -7.4500    6.9700 S   0  0  0  0  0  0  0  0  0  0  0  0
    3.0760   -6.0630    7.3910 O   0  0  0  0  0  0  0  0  0  0  0  0
    4.1420   -8.3020    7.5270 O   0  0  0  0  0  0  0  0  0  0  0  0
    3.3980   -7.4950    5.2380 C   0  0  0  0  0  0  0  0  0  0  0  0
    4.4050   -6.7040    4.6840 C   0  0  0  0  0  3  0  0  0  0  0  0
    4.6320   -6.7860    3.3150 C   0  0  0  0  0  0  0  0  0  0  0  0
    3.9580   -7.7350    2.5450 C   0  0  0  0  0  3  0  0  0  0  0  0
    2.9450   -8.5060    3.1170 C   0  0  0  0  0  3  0  0  0  0  0  0
    2.6090   -8.3340    4.4610 C   0  0  0  0  0  0  0  0  0  0  0  0
    1.4920   -8.9620    4.9990 N   0  0  0  0  0  0  0  0  0  0  0  0
    1.3210   -8.1160    8.1570 H   0  0  0  0  0  0  0  0  0  0  0  0
    0.8360   -9.3940    4.3480 H   0  0  0  0  0  0  0  0  0  0  0  0
   -2.4750   -9.7400    5.7560 N   0  0  0  0  0  0  0  0  0  0  0  0
   -1.1200   -9.9430    5.5740 C   0  0  0  0  0  0  0  0  0  0  0  0
   -0.6020  -10.2130    4.4880 O   0  0  0  0  0  0  0  0  0  0  0  0
   -0.2480   -9.5410    6.7210 C   0  0  2  0  0  3  0  0  0  0  0  0
   -0.7880   -9.5430    7.9520 C   0  0  2  0  0  3  0  0  0  0  0  0
   -2.2060   -9.8690    8.1460 C   0  0  0  0  0  0  0  0  0  0  0  0
   -2.7740  -10.0650    9.4070 C   0  0  0  0  0  3  0  0  0  0  0  0
   -4.1510  -10.2190    9.5250 C   0  0  0  0  0  3  0  0  0  0  0  0
   -4.9170  -10.1460    8.3760 C   0  0  0  0  0  3  0  0  0  0  0  0
   -4.4040   -9.9570    7.1410 N   0  0  0  0  0  0  0  0  0  0  0  0
   -3.0580   -9.8490    7.0380 C   0  0  0  0  0  0  0  0  0  0  0  0
   -0.1190   -9.1290    9.0870 O   0  0  0  0  0  0  0  0  0  0  0  0
    0.8120   -9.5170    9.0760 H   0  0  0  0  0  0  0  0  0  0  0  0
   -3.2790   -9.2880    4.6280 C   0  0  0  0  0  2  0  0  0  0  0  0
   -3.3250   -7.7410    4.5560 C   0  0  0  0  0  2  0  0  0  0  0  0
   -1.5030   -6.1240    5.2350 C   0  0  0  0  0  1  0  0  0  0  0  0
   -2.6570   -6.9980    5.7360 C   0  0  0  0  0  3  0  0  0  0  0  0
   -3.6540   -6.1500    6.5210 C   0  0  0  0  0  1  0  0  0  0  0  0
    5.4830   -5.8520    2.6480 N   0  0  0  0  0  0  0  0  0  0  0  0
    6.4630   -6.1370    2.7060 H   0  0  0  0  0  0  0  0  0  0  0  0
    5.4600   -4.2520    3.2270 S   0  0  0  0  0  0  0  0  0  0  0  0
    6.2990   -4.1550    4.3940 O   0  0  0  0  0  0  0  0  0  0  0  0
    5.7520   -3.4500    2.0580 O   0  0  0  0  0  0  0  0  0  0  0  0
    3.8630   -3.9530    3.5810 N   0  0  0  0  0  0  0  0  0  0  0  0
    3.3040   -4.7840    3.4080 H   0  0  0  0  0  0  0  0  0  0  0  0
    3.3790   -3.0650    4.5900 C   0  0  0  0  0  0  0  0  0  0  0  0
    2.0830   -2.5640    4.4080 C   0  0  0  0  0  3  0  0  0  0  0  0
    1.5050   -1.7160    5.3520 C   0  0  0  0  0  3  0  0  0  0  0  0
    2.2190   -1.3670    6.4950 C   0  0  0  0  0  3  0  0  0  0  0  0
    3.5310   -1.8290    6.6920 C   0  0  0  0  0  0  0  0  0  0  0  0
    4.1240   -2.6290    5.6900 C   0  0  0  0  0  3  0  0  0  0  0  0
    4.2310   -1.5840    8.0110 C   0  0  0  0  0  0  0  0  0  0  0  0
    3.7610   -2.1750    9.0450 O   0  0  0  0  0  1  0  0  0  0  0  0
    5.3260   -0.9430    8.0080 O   0  0  0  0  0  0  0  0  0  0  0  0
  1 12  1  1  0  0  0
  1 18  1  0  0  0  0
  1  2  1  0  0  0  0
  2 13  1  0  0  0  0
  3  2  1  0  0  0  0
  3  4  2  0  0  0  0
  3  5  2  0  0  0  0
  6  3  1  0  0  0  0
  7  6  1  0  0  0  0
  8  7  2  0  0  0  0
  9 10  2  0  0  0  0
  9  8  1  0  0  0  0
 10 11  1  0  0  0  0
 11 12  1  0  0  0  0
 11  6  2  0  0  0  0
 14 12  1  0  0  0  0
 15 25  1  0  0  0  0
 16 15  1  0  0  0  0
 17 16  2  0  0  0  0
 18 16  1  6  0  0  0
 18 19  1  0  0  0  0
 19 20  1  0  0  0  0
 19 26  1  6  0  0  0
 20 21  1  0  0  0  0
 21 22  2  0  0  0  0
 23 22  1  0  0  0  0
 24 23  2  0  0  0  0
 25 24  1  0  0  0  0
 25 20  2  0  0  0  0
 27 26  1  0  0  0  0
 28 15  1  0  0  0  0
 29 28  1  0  0  0  0
 29 31  1  0  0  0  0
 30 31  1  0  0  0  0
 31 32  1  0  0  0  0
 33 34  1  0  0  0  0
 33 35  1  0  0  0  0
 33  8  1  0  0  0  0
 35 38  1  0  0  0  0
 35 36  2  0  0  0  0
 37 35  2  0  0  0  0
 38 40  1  0  0  0  0
 39 38  1  0  0  0  0
 40 45  1  0  0  0  0
 41 40  2  0  0  0  0
 41 42  1  0  0  0  0
 42 43  2  0  0  0  0
 43 44  1  0  0  0  0
 44 46  1  0  0  0  0
 45 44  2  0  0  0  0
 46 47  1  0  0  0  0
 48 46  2  0  0  0  0
M  END
>  <minimizedAffinity>
-5.15166759

$$$$
