
 OpenBabel09122222393D

 26 29  0  0  0  0  0  0  0  0999 V2000
    5.0880   -6.5180    0.7770 C   0  0  0  0  0  0  0  0  0  0  0  0
    4.5470   -7.5530    1.5560 C   0  0  0  0  0  3  0  0  0  0  0  0
    4.0070   -7.3280    2.8300 C   0  0  0  0  0  3  0  0  0  0  0  0
    4.0260   -6.0150    3.3210 C   0  0  0  0  0  0  0  0  0  0  0  0
    4.5300   -4.9590    2.5670 C   0  0  0  0  0  0  0  0  0  0  0  0
    5.0710   -5.2080    1.2930 C   0  0  0  0  0  3  0  0  0  0  0  0
    4.3940   -3.7700    3.2370 N   0  0  0  0  0  0  0  0  0  0  0  0
    3.7930   -4.0610    4.3780 C   0  0  0  0  0  0  0  0  0  0  0  0
    3.6280   -5.4300    4.5120 N   0  0  0  0  0  0  0  0  0  0  0  0
    3.1460   -6.1340    5.6990 C   0  0  0  0  0  3  0  0  0  0  0  0
    3.8570   -5.6680    6.9770 C   0  0  0  0  0  2  0  0  0  0  0  0
    3.3870   -6.4600    8.1970 C   0  0  0  0  0  2  0  0  0  0  0  0
    1.8680   -6.4270    8.3430 C   0  0  0  0  0  2  0  0  0  0  0  0
    1.1680   -6.9110    7.0760 C   0  0  0  0  0  2  0  0  0  0  0  0
    1.6120   -6.1130    5.8500 C   0  0  0  0  0  2  0  0  0  0  0  0
    3.3860   -3.0440    5.3130 C   0  0  0  0  0  0  0  0  0  0  0  0
    2.1510   -2.4190    5.3940 C   0  0  0  0  0  3  0  0  0  0  0  0
    2.2140   -1.4920    6.4610 C   0  0  0  0  0  3  0  0  0  0  0  0
    3.4830   -1.5900    7.0010 C   0  0  0  0  0  0  0  0  0  0  0  0
    4.1810   -2.5470    6.3110 O   0  0  0  0  0  0  0  0  0  0  0  0
    4.0080   -0.7870    8.1380 C   0  0  0  0  0  0  0  0  0  0  0  0
    5.2550   -0.5250    8.1290 O   0  0  0  0  0  0  0  0  0  0  0  0
    3.1740   -0.4340    9.0290 O   0  0  0  0  0  1  0  0  0  0  0  0
    6.4050   -5.9090   -1.1150 O   0  0  0  0  0  1  0  0  0  0  0  0
    5.6720   -6.8090   -0.5930 C   0  0  0  0  0  0  0  0  0  0  0  0
    5.3870   -7.9280   -1.1280 O   0  0  0  0  0  0  0  0  0  0  0  0
  1  6  2  0  0  0  0
  1  2  1  0  0  0  0
  2  3  2  0  0  0  0
  3  4  1  0  0  0  0
  4  9  1  0  0  0  0
  5  7  1  0  0  0  0
  5  4  2  0  0  0  0
  6  5  1  0  0  0  0
  7  8  2  0  0  0  0
  8  9  1  0  0  0  0
  8 16  1  0  0  0  0
  9 10  1  0  0  0  0
 10 15  1  0  0  0  0
 10 11  1  0  0  0  0
 11 12  1  0  0  0  0
 12 13  1  0  0  0  0
 14 13  1  0  0  0  0
 15 14  1  0  0  0  0
 16 17  2  0  0  0  0
 16 20  1  0  0  0  0
 17 18  1  0  0  0  0
 18 19  2  0  0  0  0
 19 21  1  0  0  0  0
 20 19  1  0  0  0  0
 21 23  1  0  0  0  0
 22 21  2  0  0  0  0
 24 25  1  0  0  0  0
 25  1  1  0  0  0  0
 26 25  2  0  0  0  0
M  END
>  <minimizedAffinity>
-7.04114819

$$$$
