
 OpenBabel09122222393D

 26 29  0  0  0  0  0  0  0  0999 V2000
    5.1020   -6.5430    0.8050 C   0  0  0  0  0  0  0  0  0  0  0  0
    5.0710   -5.2090    1.2400 C   0  0  0  0  0  3  0  0  0  0  0  0
    4.6180   -4.8470    2.5170 C   0  0  0  0  0  3  0  0  0  0  0  0
    4.1810   -5.8720    3.3670 C   0  0  0  0  0  0  0  0  0  0  0  0
    4.2210   -7.2100    2.9800 C   0  0  0  0  0  0  0  0  0  0  0  0
    4.6750   -7.5500    1.6940 C   0  0  0  0  0  3  0  0  0  0  0  0
    3.7910   -8.0250    3.9960 N   0  0  0  0  0  0  0  0  0  0  0  0
    3.5110   -7.2270    5.0110 C   0  0  0  0  0  0  0  0  0  0  0  0
    3.6490   -5.8980    4.6450 N   0  0  0  0  0  0  0  0  0  0  0  0
    3.2810   -4.7350    5.4490 C   0  0  0  0  0  3  0  0  0  0  0  0
    4.4850   -4.1430    6.1960 C   0  0  0  0  0  2  0  0  0  0  0  0
    4.0690   -2.9690    7.0820 C   0  0  0  0  0  2  0  0  0  0  0  0
    3.3060   -1.9070    6.2930 C   0  0  0  0  0  2  0  0  0  0  0  0
    2.0990   -2.4990    5.5710 C   0  0  0  0  0  2  0  0  0  0  0  0
    2.5020   -3.6610    4.6640 C   0  0  0  0  0  2  0  0  0  0  0  0
    3.1220   -7.7350    6.3020 C   0  0  0  0  0  0  0  0  0  0  0  0
    1.8500   -8.0910    6.7200 C   0  0  0  0  0  3  0  0  0  0  0  0
    1.9520   -8.5310    8.0610 C   0  0  0  0  0  3  0  0  0  0  0  0
    3.2860   -8.4380    8.4120 C   0  0  0  0  0  0  0  0  0  0  0  0
    3.9920   -7.9720    7.3340 O   0  0  0  0  0  0  0  0  0  0  0  0
    3.8610   -8.7790    9.7410 C   0  0  0  0  0  0  0  0  0  0  0  0
    4.0810  -10.0110    9.9730 O   0  0  0  0  0  0  0  0  0  0  0  0
    4.0780   -7.8150   10.5400 O   0  0  0  0  0  1  0  0  0  0  0  0
    6.2420   -5.9920   -1.2150 O   0  0  0  0  0  0  0  0  0  0  0  0
    5.5900   -6.8890   -0.5890 C   0  0  0  0  0  0  0  0  0  0  0  0
    5.3130   -8.0460   -1.0390 O   0  0  0  0  0  1  0  0  0  0  0  0
  1  2  2  0  0  0  0
  1  6  1  0  0  0  0
  2  3  1  0  0  0  0
  3  4  2  0  0  0  0
  4  9  1  0  0  0  0
  5  4  1  0  0  0  0
  5  7  1  0  0  0  0
  6  5  2  0  0  0  0
  7  8  2  0  0  0  0
  8 16  1  0  0  0  0
  9  8  1  0  0  0  0
  9 10  1  0  0  0  0
 10 11  1  0  0  0  0
 11 12  1  0  0  0  0
 13 12  1  0  0  0  0
 14 13  1  0  0  0  0
 15 10  1  0  0  0  0
 15 14  1  0  0  0  0
 16 17  2  0  0  0  0
 16 20  1  0  0  0  0
 17 18  1  0  0  0  0
 18 19  2  0  0  0  0
 19 21  1  0  0  0  0
 20 19  1  0  0  0  0
 21 22  2  0  0  0  0
 21 23  1  0  0  0  0
 24 25  2  0  0  0  0
 25  1  1  0  0  0  0
 26 25  1  0  0  0  0
M  END
>  <minimizedAffinity>
-6.51567364

$$$$
