
 OpenBabel09122222393D

 26 29  0  0  0  0  0  0  0  0999 V2000
    6.3630   -6.0920    0.1860 C   0  0  0  0  0  0  0  0  0  0  0  0
    7.2520   -5.6670   -0.8140 C   0  0  0  0  0  3  0  0  0  0  0  0
    8.2260   -4.6850   -0.5820 C   0  0  0  0  0  3  0  0  0  0  0  0
    8.2880   -4.1210    0.7000 C   0  0  0  0  0  0  0  0  0  0  0  0
    7.4400   -4.5360    1.7240 C   0  0  0  0  0  0  0  0  0  0  0  0
    6.4680   -5.5190    1.4690 C   0  0  0  0  0  3  0  0  0  0  0  0
    7.7250   -3.8770    2.8920 N   0  0  0  0  0  0  0  0  0  0  0  0
    8.7470   -3.0820    2.6230 C   0  0  0  0  0  0  0  0  0  0  0  0
    9.0680   -3.1320    1.2770 N   0  0  0  0  0  0  0  0  0  0  0  0
   10.0340   -2.2830    0.5830 C   0  0  0  0  0  3  0  0  0  0  0  0
   10.7440   -3.0260   -0.5580 C   0  0  0  0  0  2  0  0  0  0  0  0
   11.7960   -2.1440   -1.2280 C   0  0  0  0  0  2  0  0  0  0  0  0
   11.2090   -0.8120   -1.6900 C   0  0  0  0  0  2  0  0  0  0  0  0
   10.5240   -0.0700   -0.5450 C   0  0  0  0  0  2  0  0  0  0  0  0
    9.4530   -0.9320    0.1210 C   0  0  0  0  0  2  0  0  0  0  0  0
    9.3980   -2.2980    3.6410 C   0  0  0  0  0  0  0  0  0  0  0  0
   10.1530   -2.7600    4.7070 C   0  0  0  0  0  3  0  0  0  0  0  0
   10.5890   -1.6300    5.4400 C   0  0  0  0  0  3  0  0  0  0  0  0
   10.0920   -0.5160    4.7890 C   0  0  0  0  0  0  0  0  0  0  0  0
    9.3870   -0.9290    3.6870 O   0  0  0  0  0  0  0  0  0  0  0  0
   10.2850    0.8970    5.2140 C   0  0  0  0  0  0  0  0  0  0  0  0
   10.7320    1.0860    6.3910 O   0  0  0  0  0  1  0  0  0  0  0  0
    9.9800    1.7980    4.3730 O   0  0  0  0  0  0  0  0  0  0  0  0
    5.4710   -7.8370   -1.1730 O   0  0  0  0  0  0  0  0  0  0  0  0
    5.3170   -7.1510   -0.1120 C   0  0  0  0  0  0  0  0  0  0  0  0
    4.3580   -7.2790    0.7140 O   0  0  0  0  0  1  0  0  0  0  0  0
  1  6  1  0  0  0  0
  2  3  1  0  0  0  0
  2  1  2  0  0  0  0
  3  4  2  0  0  0  0
  4  9  1  0  0  0  0
  4  5  1  0  0  0  0
  5  7  1  0  0  0  0
  6  5  2  0  0  0  0
  8  7  2  0  0  0  0
  8 16  1  0  0  0  0
  9  8  1  0  0  0  0
 10  9  1  0  0  0  0
 11 10  1  0  0  0  0
 12 11  1  0  0  0  0
 13 12  1  0  0  0  0
 13 14  1  0  0  0  0
 14 15  1  0  0  0  0
 15 10  1  0  0  0  0
 16 20  1  0  0  0  0
 16 17  2  0  0  0  0
 17 18  1  0  0  0  0
 19 21  1  0  0  0  0
 19 18  2  0  0  0  0
 20 19  1  0  0  0  0
 21 22  1  0  0  0  0
 23 21  2  0  0  0  0
 24 25  2  0  0  0  0
 25  1  1  0  0  0  0
 25 26  1  0  0  0  0
M  END
>  <minimizedAffinity>
-7.80355167

$$$$
