
 OpenBabel09122222393D

 26 29  0  0  0  0  0  0  0  0999 V2000
    6.2240   -6.1590    0.3760 C   0  0  0  0  0  0  0  0  0  0  0  0
    6.2030   -5.4290    1.5750 C   0  0  0  0  0  3  0  0  0  0  0  0
    7.1640   -4.4510    1.8740 C   0  0  0  0  0  3  0  0  0  0  0  0
    8.1710   -4.2190    0.9280 C   0  0  0  0  0  0  0  0  0  0  0  0
    8.2100   -4.9050   -0.2840 C   0  0  0  0  0  0  0  0  0  0  0  0
    7.2390   -5.8840   -0.5620 C   0  0  0  0  0  3  0  0  0  0  0  0
    9.2550   -4.4710   -1.0590 N   0  0  0  0  0  0  0  0  0  0  0  0
    9.8490   -3.5140   -0.3680 C   0  0  0  0  0  0  0  0  0  0  0  0
    9.2770   -3.3860    0.8880 N   0  0  0  0  0  0  0  0  0  0  0  0
    9.7620   -2.5440    1.9800 C   0  0  0  0  0  3  0  0  0  0  0  0
    9.0410   -1.1900    2.0310 C   0  0  0  0  0  2  0  0  0  0  0  0
    9.6060   -0.2990    3.1360 C   0  0  0  0  0  2  0  0  0  0  0  0
    9.5970   -1.0030    4.4910 C   0  0  0  0  0  2  0  0  0  0  0  0
   10.3340   -2.3390    4.4380 C   0  0  0  0  0  2  0  0  0  0  0  0
    9.7650   -3.2500    3.3500 C   0  0  0  0  0  2  0  0  0  0  0  0
   10.9380   -2.7400   -0.9060 C   0  0  0  0  0  0  0  0  0  0  0  0
   12.2210   -3.1770   -1.1950 C   0  0  0  0  0  3  0  0  0  0  0  0
   12.9420   -2.0710   -1.7020 C   0  0  0  0  0  3  0  0  0  0  0  0
   12.0710   -0.9980   -1.7150 C   0  0  0  0  0  0  0  0  0  0  0  0
   10.8510   -1.4160   -1.2490 O   0  0  0  0  0  0  0  0  0  0  0  0
   12.4010    0.3850   -2.1560 C   0  0  0  0  0  0  0  0  0  0  0  0
   13.6280    0.7230   -2.1140 O   0  0  0  0  0  1  0  0  0  0  0  0
   11.4330    1.1170   -2.5300 O   0  0  0  0  0  0  0  0  0  0  0  0
    5.2820   -7.8750   -0.9850 O   0  0  0  0  0  0  0  0  0  0  0  0
    5.1710   -7.2140    0.0980 C   0  0  0  0  0  0  0  0  0  0  0  0
    4.2480   -7.3660    0.9600 O   0  0  0  0  0  1  0  0  0  0  0  0
  1  2  1  0  0  0  0
  2  3  2  0  0  0  0
  4  3  1  0  0  0  0
  5  4  2  0  0  0  0
  6  5  1  0  0  0  0
  6  1  2  0  0  0  0
  7  8  2  0  0  0  0
  7  5  1  0  0  0  0
  8  9  1  0  0  0  0
  9  4  1  0  0  0  0
  9 10  1  0  0  0  0
 10 11  1  0  0  0  0
 10 15  1  0  0  0  0
 11 12  1  0  0  0  0
 12 13  1  0  0  0  0
 14 13  1  0  0  0  0
 15 14  1  0  0  0  0
 16  8  1  0  0  0  0
 17 16  2  0  0  0  0
 18 17  1  0  0  0  0
 19 18  2  0  0  0  0
 19 20  1  0  0  0  0
 20 16  1  0  0  0  0
 21 22  1  0  0  0  0
 21 19  1  0  0  0  0
 23 21  2  0  0  0  0
 24 25  2  0  0  0  0
 25  1  1  0  0  0  0
 25 26  1  0  0  0  0
M  END
>  <minimizedAffinity>
-8.44220543

$$$$
