
 OpenBabel09122222393D

 26 29  0  0  0  0  0  0  0  0999 V2000
    5.0470   -6.5030    0.9080 C   0  0  0  0  0  0  0  0  0  0  0  0
    4.4100   -7.5140    1.6450 C   0  0  0  0  0  3  0  0  0  0  0  0
    3.8070   -7.2690    2.8870 C   0  0  0  0  0  3  0  0  0  0  0  0
    3.8610   -5.9630    3.3900 C   0  0  0  0  0  0  0  0  0  0  0  0
    4.4620   -4.9280    2.6760 C   0  0  0  0  0  0  0  0  0  0  0  0
    5.0640   -5.1960    1.4340 C   0  0  0  0  0  3  0  0  0  0  0  0
    4.3450   -3.7380    3.3480 N   0  0  0  0  0  0  0  0  0  0  0  0
    3.6640   -4.0060    4.4490 C   0  0  0  0  0  0  0  0  0  0  0  0
    3.4240   -5.3650    4.5610 N   0  0  0  0  0  0  0  0  0  0  0  0
    2.8380   -6.0510    5.7110 C   0  0  0  0  0  3  0  0  0  0  0  0
    1.3670   -6.4240    5.4750 C   0  0  0  0  0  2  0  0  0  0  0  0
    0.7530   -7.0800    6.7100 C   0  0  0  0  0  2  0  0  0  0  0  0
    1.5770   -8.2740    7.1860 C   0  0  0  0  0  2  0  0  0  0  0  0
    3.0320   -7.8910    7.4390 C   0  0  0  0  0  2  0  0  0  0  0  0
    3.6670   -7.2530    6.2040 C   0  0  0  0  0  2  0  0  0  0  0  0
    3.2530   -2.9750    5.3670 C   0  0  0  0  0  0  0  0  0  0  0  0
    2.0810   -2.2360    5.3350 C   0  0  0  0  0  3  0  0  0  0  0  0
    2.1130   -1.3430    6.4330 C   0  0  0  0  0  3  0  0  0  0  0  0
    3.2990   -1.5750    7.1030 C   0  0  0  0  0  0  0  0  0  0  0  0
    3.9770   -2.5800    6.4620 O   0  0  0  0  0  0  0  0  0  0  0  0
    3.7690   -0.8520    8.3160 C   0  0  0  0  0  0  0  0  0  0  0  0
    2.8980   -0.6100    9.2130 O   0  0  0  0  0  1  0  0  0  0  0  0
    4.9960   -0.5280    8.3550 O   0  0  0  0  0  0  0  0  0  0  0  0
    5.3870   -7.9190   -0.9800 O   0  0  0  0  0  0  0  0  0  0  0  0
    5.6950   -6.8140   -0.4280 C   0  0  0  0  0  0  0  0  0  0  0  0
    6.5040   -5.9550   -0.9030 O   0  0  0  0  0  1  0  0  0  0  0  0
  1  6  2  0  0  0  0
  1  2  1  0  0  0  0
  2  3  2  0  0  0  0
  3  4  1  0  0  0  0
  4  9  1  0  0  0  0
  5  7  1  0  0  0  0
  5  4  2  0  0  0  0
  6  5  1  0  0  0  0
  7  8  2  0  0  0  0
  8  9  1  0  0  0  0
  8 16  1  0  0  0  0
  9 10  1  0  0  0  0
 10 15  1  0  0  0  0
 11 10  1  0  0  0  0
 11 12  1  0  0  0  0
 12 13  1  0  0  0  0
 13 14  1  0  0  0  0
 15 14  1  0  0  0  0
 16 20  1  0  0  0  0
 17 16  2  0  0  0  0
 17 18  1  0  0  0  0
 18 19  2  0  0  0  0
 19 21  1  0  0  0  0
 20 19  1  0  0  0  0
 21 23  2  0  0  0  0
 21 22  1  0  0  0  0
 24 25  2  0  0  0  0
 25  1  1  0  0  0  0
 26 25  1  0  0  0  0
M  END
>  <minimizedAffinity>
-6.77425623

$$$$
