
 OpenBabel09122222393D

 48 53  0  0  1  0  0  0  0  0999 V2000
    9.4170   -3.9820   -0.5490 O   0  0  0  0  0  0  0  0  0  0  0  0
    9.0010   -3.6710    0.5660 C   0  0  0  0  0  0  0  0  0  0  0  0
    9.4650   -2.5670    1.2170 N   0  0  0  0  0  0  0  0  0  0  0  0
   10.0040   -1.9190    0.6520 H   0  0  0  0  0  0  0  0  0  0  0  0
    7.9790   -4.5340    1.1970 C   0  0  0  0  0  0  0  0  0  0  0  0
    7.8460   -5.8490    0.7370 C   0  0  0  0  0  3  0  0  0  0  0  0
    6.8470   -6.6930    1.2350 C   0  0  0  0  0  3  0  0  0  0  0  0
    5.9810   -6.1660    2.2040 C   0  0  0  0  0  0  0  0  0  0  0  0
    6.1010   -4.8590    2.6690 C   0  0  0  0  0  0  0  0  0  0  0  0
    7.0920   -4.0140    2.1470 C   0  0  0  0  0  3  0  0  0  0  0  0
    5.1670   -4.5980    3.6310 N   0  0  0  0  0  0  0  0  0  0  0  0
    4.5160   -5.7260    3.8330 C   0  0  0  0  0  0  0  0  0  0  0  0
    4.8790   -6.6640    2.8810 N   0  0  0  0  0  0  0  0  0  0  0  0
    4.1680   -7.8980    2.5710 C   0  0  0  0  0  3  0  0  0  0  0  0
    3.7150   -8.0020    1.1030 C   0  0  0  0  0  2  0  0  0  0  0  0
    2.9090   -9.2780    0.8650 C   0  0  0  0  0  2  0  0  0  0  0  0
    3.6830  -10.5190    1.3050 C   0  0  0  0  0  2  0  0  0  0  0  0
    4.1320  -10.4190    2.7600 C   0  0  0  0  0  2  0  0  0  0  0  0
    4.9370   -9.1480    3.0220 C   0  0  0  0  0  2  0  0  0  0  0  0
    3.5590   -5.8560    4.9730 C   0  0  0  0  0  0  0  0  0  0  0  0
    3.7620   -6.0180    6.3650 C   0  0  0  0  0  3  0  0  0  0  0  0
    2.5100   -6.0470    6.9380 C   0  0  0  0  0  3  0  0  0  0  0  0
    1.5490   -5.8990    5.9920 O   0  0  0  0  0  0  0  0  0  0  0  0
    2.1940   -5.7640    4.8040 C   0  0  0  0  0  3  0  0  0  0  0  0
    9.2940   -2.1050    2.6190 C   0  0  2  0  0  3  0  0  0  0  0  0
    9.2880   -0.5580    2.8020 C   0  0  0  0  0  0  0  0  0  0  0  0
    9.6490   -0.1460    3.9430 O   0  0  0  0  0  1  0  0  0  0  0  0
    8.9060    0.1120    1.7960 O   0  0  0  0  0  0  0  0  0  0  0  0
   10.3470   -2.7270    3.5560 C   0  0  0  0  0  2  0  0  0  0  0  0
   10.1880   -2.4530    5.0330 C   0  0  0  0  0  0  0  0  0  0  0  0
   11.1830   -2.0750    5.9130 C   0  0  0  0  0  3  0  0  0  0  0  0
   10.6380   -1.9130    7.1540 N   0  0  0  0  0  0  0  0  0  0  0  0
    9.2820   -2.1340    7.1080 C   0  0  0  0  0  0  0  0  0  0  0  0
    8.3230   -2.0480    8.1250 C   0  0  0  0  0  3  0  0  0  0  0  0
    6.9960   -2.3190    7.7850 C   0  0  0  0  0  3  0  0  0  0  0  0
    6.6530   -2.6720    6.4810 C   0  0  0  0  0  0  0  0  0  0  0  0
    7.6200   -2.7470    5.4750 C   0  0  0  0  0  3  0  0  0  0  0  0
    8.9680   -2.4770    5.7910 C   0  0  0  0  0  0  0  0  0  0  0  0
   11.1590   -1.6530    7.9780 H   0  0  0  0  0  0  0  0  0  0  0  0
    5.2850   -2.9040    6.1490 N   0  0  0  0  0  0  0  0  0  0  0  0
    5.0230   -3.8880    6.0720 H   0  0  0  0  0  0  0  0  0  0  0  0
    4.1150   -2.0820    7.0800 S   0  0  0  0  0  0  0  0  0  0  0  0
    3.8530   -3.0030    8.1780 O   0  0  0  0  0  0  0  0  0  0  0  0
    4.6260   -0.7610    7.3970 O   0  0  0  0  0  0  0  0  0  0  0  0
    2.6150   -1.9930    5.9780 C   0  0  0  0  0  0  0  0  0  0  0  0
    1.6390   -2.8680    6.3440 F   0  0  0  0  0  0  0  0  0  0  0  0
    2.0520   -0.7490    5.9850 F   0  0  0  0  0  0  0  0  0  0  0  0
    2.9240   -2.2710    4.6780 F   0  0  0  0  0  0  0  0  0  0  0  0
  1  2  2  0  0  0  0
  2  5  1  0  0  0  0
  2  3  1  0  0  0  0
  3 25  1  0  0  0  0
  4  3  1  0  0  0  0
  5 10  1  0  0  0  0
  6  5  2  0  0  0  0
  6  7  1  0  0  0  0
  7  8  2  0  0  0  0
  8  9  1  0  0  0  0
  8 13  1  0  0  0  0
  9 11  1  0  0  0  0
 10  9  2  0  0  0  0
 11 12  2  0  0  0  0
 12 20  1  0  0  0  0
 13 12  1  0  0  0  0
 14 13  1  0  0  0  0
 14 19  1  0  0  0  0
 15 14  1  0  0  0  0
 16 15  1  0  0  0  0
 16 17  1  0  0  0  0
 17 18  1  0  0  0  0
 18 19  1  0  0  0  0
 20 21  1  0  0  0  0
 21 22  2  0  0  0  0
 23 22  1  0  0  0  0
 24 20  2  0  0  0  0
 24 23  1  0  0  0  0
 25 26  1  0  0  0  0
 25 29  1  1  0  0  0
 26 27  1  0  0  0  0
 28 26  2  0  0  0  0
 29 30  1  0  0  0  0
 30 38  1  0  0  0  0
 30 31  2  0  0  0  0
 31 32  1  0  0  0  0
 32 39  1  0  0  0  0
 33 32  1  0  0  0  0
 33 34  1  0  0  0  0
 35 34  2  0  0  0  0
 36 35  1  0  0  0  0
 37 38  1  0  0  0  0
 37 36  2  0  0  0  0
 38 33  2  0  0  0  0
 40 36  1  0  0  0  0
 40 42  1  0  0  0  0
 41 40  1  0  0  0  0
 42 44  2  0  0  0  0
 42 43  2  0  0  0  0
 45 47  1  0  0  0  0
 45 46  1  0  0  0  0
 45 42  1  0  0  0  0
 48 45  1  0  0  0  0
M  END
>  <minimizedAffinity>
-8.10040951

$$$$
