
 OpenBabel09122222393D

 48 53  0  0  1  0  0  0  0  0999 V2000
    6.3960   -4.9200    8.2700 O   0  0  0  0  0  0  0  0  0  0  0  0
    6.0070   -3.9710    7.5920 C   0  0  0  0  0  0  0  0  0  0  0  0
    4.7150   -3.5400    7.6450 N   0  0  0  0  0  0  0  0  0  0  0  0
    4.1620   -3.9060    8.4120 H   0  0  0  0  0  0  0  0  0  0  0  0
    6.9810   -3.3010    6.7040 C   0  0  0  0  0  0  0  0  0  0  0  0
    7.7150   -2.2250    7.2160 C   0  0  0  0  0  3  0  0  0  0  0  0
    8.5960   -1.4980    6.4060 C   0  0  0  0  0  3  0  0  0  0  0  0
    8.7030   -1.8830    5.0620 C   0  0  0  0  0  0  0  0  0  0  0  0
    7.9770   -2.9500    4.5400 C   0  0  0  0  0  0  0  0  0  0  0  0
    7.0820   -3.6590    5.3540 C   0  0  0  0  0  3  0  0  0  0  0  0
    8.2830   -3.1460    3.2230 N   0  0  0  0  0  0  0  0  0  0  0  0
    9.2340   -2.2810    2.9290 C   0  0  0  0  0  0  0  0  0  0  0  0
    9.4130   -1.3950    3.9770 N   0  0  0  0  0  0  0  0  0  0  0  0
   10.1260   -0.1240    3.9200 C   0  0  0  0  0  3  0  0  0  0  0  0
    9.4940    0.9000    2.9590 C   0  0  0  0  0  2  0  0  0  0  0  0
   10.3320    2.1760    2.8860 C   0  0  0  0  0  2  0  0  0  0  0  0
   10.5660    2.7720    4.2720 C   0  0  0  0  0  2  0  0  0  0  0  0
   11.1940    1.7590    5.2260 C   0  0  0  0  0  2  0  0  0  0  0  0
   10.3730    0.4740    5.3120 C   0  0  0  0  0  2  0  0  0  0  0  0
    9.9540   -2.3610    1.6220 C   0  0  0  0  0  0  0  0  0  0  0  0
    9.7160   -1.7410    0.3710 C   0  0  0  0  0  3  0  0  0  0  0  0
   10.7240   -2.1610   -0.4670 C   0  0  0  0  0  3  0  0  0  0  0  0
   11.5770   -2.9880    0.1890 O   0  0  0  0  0  0  0  0  0  0  0  0
   11.1140   -3.0900    1.4620 C   0  0  0  0  0  3  0  0  0  0  0  0
    3.9590   -2.5860    6.7920 C   0  0  2  0  0  3  0  0  0  0  0  0
    3.5710   -1.2490    7.4930 C   0  0  0  0  0  0  0  0  0  0  0  0
    4.3070   -0.9140    8.4660 O   0  0  0  0  0  1  0  0  0  0  0  0
    2.5530   -0.6590    7.0230 O   0  0  0  0  0  0  0  0  0  0  0  0
    2.6980   -3.2340    6.1920 C   0  0  0  0  0  2  0  0  0  0  0  0
    2.8050   -4.6860    5.7930 C   0  0  0  0  0  0  0  0  0  0  0  0
    2.0980   -5.7440    6.3310 C   0  0  0  0  0  3  0  0  0  0  0  0
    2.4680   -6.8930    5.6950 N   0  0  0  0  0  0  0  0  0  0  0  0
    3.3810   -6.6140    4.7050 C   0  0  0  0  0  0  0  0  0  0  0  0
    4.0020   -7.4710    3.7890 C   0  0  0  0  0  3  0  0  0  0  0  0
    4.8910   -6.9030    2.8740 C   0  0  0  0  0  3  0  0  0  0  0  0
    5.1510   -5.5340    2.8910 C   0  0  0  0  0  0  0  0  0  0  0  0
    4.5200   -4.6890    3.8080 C   0  0  0  0  0  3  0  0  0  0  0  0
    3.6150   -5.2380    4.7420 C   0  0  0  0  0  0  0  0  0  0  0  0
    2.1080   -7.8100    5.9140 H   0  0  0  0  0  0  0  0  0  0  0  0
    6.0330   -4.9700    1.9210 N   0  0  0  0  0  0  0  0  0  0  0  0
    6.6480   -4.2370    2.2750 H   0  0  0  0  0  0  0  0  0  0  0  0
    6.9440   -6.0630    0.9800 S   0  0  0  0  0  0  0  0  0  0  0  0
    8.0050   -5.2300    0.4300 O   0  0  0  0  0  0  0  0  0  0  0  0
    7.3170   -7.1890    1.8170 O   0  0  0  0  0  0  0  0  0  0  0  0
    5.7920   -6.5780   -0.3910 C   0  0  0  0  0  0  0  0  0  0  0  0
    4.6080   -5.9070   -0.3650 F   0  0  0  0  0  0  0  0  0  0  0  0
    6.3400   -6.3650   -1.6230 F   0  0  0  0  0  0  0  0  0  0  0  0
    5.4910   -7.9080   -0.3260 F   0  0  0  0  0  0  0  0  0  0  0  0
  2  3  1  0  0  0  0
  2  1  2  0  0  0  0
  3  4  1  0  0  0  0
  5  6  1  0  0  0  0
  5  2  1  0  0  0  0
  7  6  2  0  0  0  0
  8  7  1  0  0  0  0
  9  8  2  0  0  0  0
  9 10  1  0  0  0  0
 10  5  2  0  0  0  0
 11  9  1  0  0  0  0
 12 11  2  0  0  0  0
 12 13  1  0  0  0  0
 13  8  1  0  0  0  0
 14 13  1  0  0  0  0
 14 19  1  0  0  0  0
 15 14  1  0  0  0  0
 16 15  1  0  0  0  0
 16 17  1  0  0  0  0
 17 18  1  0  0  0  0
 18 19  1  0  0  0  0
 20 12  1  0  0  0  0
 21 20  1  0  0  0  0
 22 23  1  0  0  0  0
 22 21  2  0  0  0  0
 23 24  1  0  0  0  0
 24 20  2  0  0  0  0
 25 29  1  1  0  0  0
 25 26  1  0  0  0  0
 25  3  1  0  0  0  0
 26 27  1  0  0  0  0
 28 26  2  0  0  0  0
 30 29  1  0  0  0  0
 30 31  2  0  0  0  0
 32 39  1  0  0  0  0
 32 31  1  0  0  0  0
 33 38  1  0  0  0  0
 33 32  1  0  0  0  0
 34 33  2  0  0  0  0
 35 36  2  0  0  0  0
 35 34  1  0  0  0  0
 36 37  1  0  0  0  0
 37 38  2  0  0  0  0
 38 30  1  0  0  0  0
 40 41  1  0  0  0  0
 40 36  1  0  0  0  0
 42 44  2  0  0  0  0
 42 40  1  0  0  0  0
 43 42  2  0  0  0  0
 45 46  1  0  0  0  0
 45 48  1  0  0  0  0
 45 42  1  0  0  0  0
 47 45  1  0  0  0  0
M  END
>  <minimizedAffinity>
-8.77948475

$$$$
