
 OpenBabel09122222393D

 48 53  0  0  1  0  0  0  0  0999 V2000
    1.4670   -1.3420    5.5730 O   0  0  0  0  0  0  0  0  0  0  0  0
    2.3860   -2.0590    5.9650 C   0  0  0  0  0  0  0  0  0  0  0  0
    3.0910   -1.7600    7.0930 N   0  0  0  0  0  0  0  0  0  0  0  0
    2.6850   -1.0460    7.6880 H   0  0  0  0  0  0  0  0  0  0  0  0
    2.7190   -3.2630    5.1740 C   0  0  0  0  0  0  0  0  0  0  0  0
    2.2710   -4.5050    5.6370 C   0  0  0  0  0  3  0  0  0  0  0  0
    2.6170   -5.6910    4.9790 C   0  0  0  0  0  3  0  0  0  0  0  0
    3.4390   -5.5850    3.8480 C   0  0  0  0  0  0  0  0  0  0  0  0
    3.8940   -4.3560    3.3790 C   0  0  0  0  0  0  0  0  0  0  0  0
    3.5590   -3.1750    4.0570 C   0  0  0  0  0  3  0  0  0  0  0  0
    4.6440   -4.5160    2.2480 N   0  0  0  0  0  0  0  0  0  0  0  0
    4.6080   -5.8010    1.9560 C   0  0  0  0  0  0  0  0  0  0  0  0
    4.0100   -6.5070    2.9860 N   0  0  0  0  0  0  0  0  0  0  0  0
    4.0660   -7.9500    3.1880 C   0  0  0  0  0  3  0  0  0  0  0  0
    5.4880   -8.4890    3.4300 C   0  0  0  0  0  2  0  0  0  0  0  0
    5.4850  -10.0120    3.5540 C   0  0  0  0  0  2  0  0  0  0  0  0
    4.5120  -10.4850    4.6320 C   0  0  0  0  0  2  0  0  0  0  0  0
    3.1010   -9.9530    4.3930 C   0  0  0  0  0  2  0  0  0  0  0  0
    3.0800   -8.4310    4.2630 C   0  0  0  0  0  2  0  0  0  0  0  0
    5.1530   -6.2990    0.6570 C   0  0  0  0  0  0  0  0  0  0  0  0
    6.3420   -5.9930   -0.0500 C   0  0  0  0  0  3  0  0  0  0  0  0
    6.3340   -6.7820   -1.1780 C   0  0  0  0  0  3  0  0  0  0  0  0
    5.2270   -7.5640   -1.2060 O   0  0  0  0  0  0  0  0  0  0  0  0
    4.5240   -7.2800   -0.0790 C   0  0  0  0  0  3  0  0  0  0  0  0
    4.3500   -2.3240    7.6460 C   0  0  2  0  0  3  0  0  0  0  0  0
    4.2360   -2.8800    9.0970 C   0  0  0  0  0  0  0  0  0  0  0  0
    5.3020   -3.3640    9.5780 O   0  0  0  0  0  0  0  0  0  0  0  0
    3.0860   -2.8040    9.6250 O   0  0  0  0  0  1  0  0  0  0  0  0
    5.5070   -1.3090    7.5770 C   0  0  0  0  0  2  0  0  0  0  0  0
    6.7900   -1.7840    6.9370 C   0  0  0  0  0  0  0  0  0  0  0  0
    6.9490   -2.8970    6.1350 C   0  0  0  0  0  3  0  0  0  0  0  0
    8.2530   -2.9780    5.7440 N   0  0  0  0  0  0  0  0  0  0  0  0
    8.9640   -1.9090    6.2370 C   0  0  0  0  0  0  0  0  0  0  0  0
   10.3100   -1.5690    6.0640 C   0  0  0  0  0  3  0  0  0  0  0  0
   10.7660   -0.4020    6.6810 C   0  0  0  0  0  3  0  0  0  0  0  0
    9.9040    0.3810    7.4470 C   0  0  0  0  0  0  0  0  0  0  0  0
    8.5600    0.0320    7.6060 C   0  0  0  0  0  3  0  0  0  0  0  0
    8.0740   -1.1420    6.9920 C   0  0  0  0  0  0  0  0  0  0  0  0
    8.6320   -3.7120    5.1640 H   0  0  0  0  0  0  0  0  0  0  0  0
   10.3820    1.5900    8.0340 N   0  0  0  0  0  0  0  0  0  0  0  0
   11.3630    1.5710    8.3190 H   0  0  0  0  0  0  0  0  0  0  0  0
   10.0710    3.0360    7.1830 S   0  0  0  0  0  0  0  0  0  0  0  0
   11.1490    3.9160    7.6130 O   0  0  0  0  0  0  0  0  0  0  0  0
    9.9620    2.7210    5.7700 O   0  0  0  0  0  0  0  0  0  0  0  0
    8.4570    3.6530    7.8770 C   0  0  0  0  0  0  0  0  0  0  0  0
    8.5340    4.9310    8.3380 F   0  0  0  0  0  0  0  0  0  0  0  0
    7.4600    3.6290    6.9440 F   0  0  0  0  0  0  0  0  0  0  0  0
    8.0280    2.8850    8.9210 F   0  0  0  0  0  0  0  0  0  0  0  0
  1  2  2  0  0  0  0
  2  3  1  0  0  0  0
  3 25  1  0  0  0  0
  3  4  1  0  0  0  0
  5  6  1  0  0  0  0
  5  2  1  0  0  0  0
  7  6  2  0  0  0  0
  8  7  1  0  0  0  0
  9  8  2  0  0  0  0
  9 10  1  0  0  0  0
 10  5  2  0  0  0  0
 11  9  1  0  0  0  0
 12 11  2  0  0  0  0
 12 13  1  0  0  0  0
 13 14  1  0  0  0  0
 13  8  1  0  0  0  0
 14 15  1  0  0  0  0
 14 19  1  0  0  0  0
 15 16  1  0  0  0  0
 16 17  1  0  0  0  0
 18 17  1  0  0  0  0
 19 18  1  0  0  0  0
 20 12  1  0  0  0  0
 21 20  1  0  0  0  0
 22 21  2  0  0  0  0
 23 22  1  0  0  0  0
 23 24  1  0  0  0  0
 24 20  2  0  0  0  0
 25 29  1  1  0  0  0
 25 26  1  0  0  0  0
 26 27  2  0  0  0  0
 26 28  1  0  0  0  0
 30 38  1  0  0  0  0
 30 29  1  0  0  0  0
 31 30  2  0  0  0  0
 32 31  1  0  0  0  0
 32 33  1  0  0  0  0
 33 38  1  0  0  0  0
 34 33  2  0  0  0  0
 34 35  1  0  0  0  0
 35 36  2  0  0  0  0
 36 37  1  0  0  0  0
 36 40  1  0  0  0  0
 38 37  2  0  0  0  0
 39 32  1  0  0  0  0
 40 41  1  0  0  0  0
 42 43  2  0  0  0  0
 42 45  1  0  0  0  0
 42 40  1  0  0  0  0
 44 42  2  0  0  0  0
 45 46  1  0  0  0  0
 45 48  1  0  0  0  0
 47 45  1  0  0  0  0
M  END
>  <minimizedAffinity>
-8.30544472

$$$$
