
 OpenBabel09122222393D

 48 53  0  0  1  0  0  0  0  0999 V2000
    6.4240   -5.2320    8.9370 O   0  0  0  0  0  0  0  0  0  0  0  0
    5.8890   -4.2890    8.3550 C   0  0  0  0  0  0  0  0  0  0  0  0
    4.5730   -3.9900    8.5450 N   0  0  0  0  0  0  0  0  0  0  0  0
    4.1280   -4.4480    9.3320 H   0  0  0  0  0  0  0  0  0  0  0  0
    6.7120   -3.4810    7.4300 C   0  0  0  0  0  0  0  0  0  0  0  0
    6.5900   -3.7160    6.0560 C   0  0  0  0  0  3  0  0  0  0  0  0
    7.3950   -3.0420    5.1300 C   0  0  0  0  0  3  0  0  0  0  0  0
    8.3350   -2.1320    5.6360 C   0  0  0  0  0  0  0  0  0  0  0  0
    8.4680   -1.8910    7.0010 C   0  0  0  0  0  0  0  0  0  0  0  0
    7.6710   -2.5870    7.9210 C   0  0  0  0  0  3  0  0  0  0  0  0
    9.4220   -0.9410    7.2340 N   0  0  0  0  0  0  0  0  0  0  0  0
    9.8350   -0.5290    6.0510 C   0  0  0  0  0  0  0  0  0  0  0  0
    9.3070   -1.3330    5.0560 N   0  0  0  0  0  0  0  0  0  0  0  0
    9.7640   -1.4070    3.6730 C   0  0  0  0  0  3  0  0  0  0  0  0
   10.0200   -2.8430    3.1790 C   0  0  0  0  0  2  0  0  0  0  0  0
   10.5720   -2.8450    1.7540 C   0  0  0  0  0  2  0  0  0  0  0  0
    9.6630   -2.0740    0.8010 C   0  0  0  0  0  2  0  0  0  0  0  0
    9.4090   -0.6490    1.2870 C   0  0  0  0  0  2  0  0  0  0  0  0
    8.8590   -0.6240    2.7120 C   0  0  0  0  0  2  0  0  0  0  0  0
   10.7310    0.6600    5.9330 C   0  0  0  0  0  0  0  0  0  0  0  0
   11.0170    1.5270    4.8500 C   0  0  0  0  0  3  0  0  0  0  0  0
   11.8960    2.4710    5.3300 C   0  0  0  0  0  3  0  0  0  0  0  0
   12.1610    2.2510    6.6420 O   0  0  0  0  0  0  0  0  0  0  0  0
   11.4360    1.1620    7.0070 C   0  0  0  0  0  3  0  0  0  0  0  0
    3.6580   -3.0690    7.8210 C   0  0  2  0  0  3  0  0  0  0  0  0
    2.7280   -2.2180    8.7370 C   0  0  0  0  0  0  0  0  0  0  0  0
    1.8090   -2.8610    9.3230 O   0  0  0  0  0  1  0  0  0  0  0  0
    2.9840   -0.9770    8.7770 O   0  0  0  0  0  0  0  0  0  0  0  0
    2.8040   -3.8170    6.7800 C   0  0  0  0  0  2  0  0  0  0  0  0
    3.2430   -3.7110    5.3390 C   0  0  0  0  0  0  0  0  0  0  0  0
    3.3800   -2.5510    4.6020 C   0  0  0  0  0  3  0  0  0  0  0  0
    3.8090   -2.8720    3.3470 N   0  0  0  0  0  0  0  0  0  0  0  0
    4.0050   -4.2290    3.2450 C   0  0  0  0  0  0  0  0  0  0  0  0
    4.4650   -4.9920    2.1660 C   0  0  0  0  0  3  0  0  0  0  0  0
    4.5790   -6.3720    2.3520 C   0  0  0  0  0  3  0  0  0  0  0  0
    4.2310   -6.9570    3.5670 C   0  0  0  0  0  0  0  0  0  0  0  0
    3.7780   -6.1820    4.6390 C   0  0  0  0  0  3  0  0  0  0  0  0
    3.6560   -4.7850    4.4780 C   0  0  0  0  0  0  0  0  0  0  0  0
    3.9720   -2.2030    2.6090 H   0  0  0  0  0  0  0  0  0  0  0  0
    4.3930   -8.3630    3.7470 N   0  0  0  0  0  0  0  0  0  0  0  0
    4.8870   -8.6320    4.5990 H   0  0  0  0  0  0  0  0  0  0  0  0
    2.9970   -9.3270    3.5760 S   0  0  0  0  0  0  0  0  0  0  0  0
    3.3140  -10.5170    4.3550 O   0  0  0  0  0  0  0  0  0  0  0  0
    1.8430   -8.5370    3.9660 O   0  0  0  0  0  0  0  0  0  0  0  0
    2.9490   -9.7700    1.7670 C   0  0  0  0  0  0  0  0  0  0  0  0
    1.8590  -10.5140    1.4350 F   0  0  0  0  0  0  0  0  0  0  0  0
    2.9250   -8.6590    0.9730 F   0  0  0  0  0  0  0  0  0  0  0  0
    4.0460  -10.4910    1.3930 F   0  0  0  0  0  0  0  0  0  0  0  0
  2  3  1  0  0  0  0
  2  1  2  0  0  0  0
  3  4  1  0  0  0  0
  5 10  1  0  0  0  0
  5  2  1  0  0  0  0
  6  5  2  0  0  0  0
  7  8  2  0  0  0  0
  7  6  1  0  0  0  0
  8  9  1  0  0  0  0
  9 11  1  0  0  0  0
  9 10  2  0  0  0  0
 12 11  2  0  0  0  0
 13  8  1  0  0  0  0
 13 12  1  0  0  0  0
 14 13  1  0  0  0  0
 15 14  1  0  0  0  0
 16 15  1  0  0  0  0
 17 18  1  0  0  0  0
 17 16  1  0  0  0  0
 18 19  1  0  0  0  0
 19 14  1  0  0  0  0
 20 12  1  0  0  0  0
 20 24  2  0  0  0  0
 21 22  2  0  0  0  0
 21 20  1  0  0  0  0
 22 23  1  0  0  0  0
 23 24  1  0  0  0  0
 25 29  1  6  0  0  0
 25  3  1  0  0  0  0
 25 26  1  0  0  0  0
 26 28  2  0  0  0  0
 26 27  1  0  0  0  0
 30 29  1  0  0  0  0
 31 30  2  0  0  0  0
 32 31  1  0  0  0  0
 33 32  1  0  0  0  0
 33 38  1  0  0  0  0
 34 35  1  0  0  0  0
 34 33  2  0  0  0  0
 35 36  2  0  0  0  0
 36 40  1  0  0  0  0
 36 37  1  0  0  0  0
 38 37  2  0  0  0  0
 38 30  1  0  0  0  0
 39 32  1  0  0  0  0
 40 41  1  0  0  0  0
 42 40  1  0  0  0  0
 42 44  2  0  0  0  0
 42 43  2  0  0  0  0
 45 42  1  0  0  0  0
 46 45  1  0  0  0  0
 47 45  1  0  0  0  0
 48 45  1  0  0  0  0
M  END
>  <minimizedAffinity>
-8.46640205

$$$$
