
 OpenBabel09122222393D

 48 53  0  0  1  0  0  0  0  0999 V2000
    9.7940   -4.4190   -0.8730 O   0  0  0  0  0  0  0  0  0  0  0  0
    9.2280   -3.8680    0.0700 C   0  0  0  0  0  0  0  0  0  0  0  0
    9.5370   -2.5930    0.4390 N   0  0  0  0  0  0  0  0  0  0  0  0
   10.0960   -2.0670   -0.2240 H   0  0  0  0  0  0  0  0  0  0  0  0
    8.1960   -4.6290    0.8060 C   0  0  0  0  0  0  0  0  0  0  0  0
    7.9840   -5.9670    0.4580 C   0  0  0  0  0  3  0  0  0  0  0  0
    6.9700   -6.7210    1.0610 C   0  0  0  0  0  3  0  0  0  0  0  0
    6.1710   -6.0790    2.0180 C   0  0  0  0  0  0  0  0  0  0  0  0
    6.3710   -4.7470    2.3720 C   0  0  0  0  0  0  0  0  0  0  0  0
    7.3750   -3.9940    1.7470 C   0  0  0  0  0  3  0  0  0  0  0  0
    5.4910   -4.3670    3.3470 N   0  0  0  0  0  0  0  0  0  0  0  0
    4.8000   -5.4440    3.6630 C   0  0  0  0  0  0  0  0  0  0  0  0
    5.0780   -6.4690    2.7750 N   0  0  0  0  0  0  0  0  0  0  0  0
    4.3000   -7.6880    2.5920 C   0  0  0  0  0  3  0  0  0  0  0  0
    3.8150   -7.9040    1.1470 C   0  0  0  0  0  2  0  0  0  0  0  0
    2.9410   -9.1530    1.0410 C   0  0  0  0  0  2  0  0  0  0  0  0
    3.6580  -10.3860    1.5860 C   0  0  0  0  0  2  0  0  0  0  0  0
    4.1370  -10.1750    3.0200 C   0  0  0  0  0  2  0  0  0  0  0  0
    5.0110   -8.9290    3.1500 C   0  0  0  0  0  2  0  0  0  0  0  0
    3.8880   -5.4380    4.8470 C   0  0  0  0  0  0  0  0  0  0  0  0
    3.3790   -6.4840    5.6560 C   0  0  0  0  0  3  0  0  0  0  0  0
    2.6090   -5.8830    6.6260 C   0  0  0  0  0  3  0  0  0  0  0  0
    2.6200   -4.5350    6.4780 O   0  0  0  0  0  0  0  0  0  0  0  0
    3.4140   -4.2700    5.4080 C   0  0  0  0  0  3  0  0  0  0  0  0
    9.1680   -1.7980    1.6400 C   0  0  2  0  0  3  0  0  0  0  0  0
    9.1490   -0.2550    1.4230 C   0  0  0  0  0  0  0  0  0  0  0  0
    9.8020    0.1590    0.4210 O   0  0  0  0  0  0  0  0  0  0  0  0
    8.4990    0.4120    2.2820 O   0  0  0  0  0  1  0  0  0  0  0  0
   10.0690   -2.1340    2.8430 C   0  0  0  0  0  2  0  0  0  0  0  0
    9.4440   -2.0180    4.2130 C   0  0  0  0  0  0  0  0  0  0  0  0
    8.6370   -2.9520    4.8330 C   0  0  0  0  0  3  0  0  0  0  0  0
    8.2840   -2.4830    6.0650 N   0  0  0  0  0  0  0  0  0  0  0  0
    8.8800   -1.2670    6.2990 C   0  0  0  0  0  0  0  0  0  0  0  0
    8.8270   -0.4430    7.4290 C   0  0  0  0  0  3  0  0  0  0  0  0
    9.5520    0.7510    7.3920 C   0  0  0  0  0  3  0  0  0  0  0  0
   10.2870    1.1030    6.2620 C   0  0  0  0  0  0  0  0  0  0  0  0
   10.3350    0.2670    5.1420 C   0  0  0  0  0  3  0  0  0  0  0  0
    9.6130   -0.9460    5.1540 C   0  0  0  0  0  0  0  0  0  0  0  0
    7.6840   -2.9720    6.7130 H   0  0  0  0  0  0  0  0  0  0  0  0
   11.0520    2.3070    6.2630 N   0  0  0  0  0  0  0  0  0  0  0  0
   12.0270    2.1960    5.9800 H   0  0  0  0  0  0  0  0  0  0  0  0
   10.3790    3.6480    5.4510 S   0  0  0  0  0  0  0  0  0  0  0  0
    8.9490    3.3670    5.4680 O   0  0  0  0  0  0  0  0  0  0  0  0
   10.8490    4.8600    6.0970 O   0  0  0  0  0  0  0  0  0  0  0  0
   11.0140    3.5090    3.7050 C   0  0  0  0  0  0  0  0  0  0  0  0
   12.1370    2.7450    3.6110 F   0  0  0  0  0  0  0  0  0  0  0  0
   10.0880    2.9530    2.8700 F   0  0  0  0  0  0  0  0  0  0  0  0
   11.3250    4.7300    3.1810 F   0  0  0  0  0  0  0  0  0  0  0  0
  1  2  2  0  0  0  0
  2  3  1  0  0  0  0
  2  5  1  0  0  0  0
  3 25  1  0  0  0  0
  4  3  1  0  0  0  0
  5 10  1  0  0  0  0
  6  5  2  0  0  0  0
  6  7  1  0  0  0  0
  7  8  2  0  0  0  0
  8  9  1  0  0  0  0
  8 13  1  0  0  0  0
  9 11  1  0  0  0  0
 10  9  2  0  0  0  0
 11 12  2  0  0  0  0
 12 20  1  0  0  0  0
 13 12  1  0  0  0  0
 14 13  1  0  0  0  0
 14 19  1  0  0  0  0
 15 14  1  0  0  0  0
 16 15  1  0  0  0  0
 16 17  1  0  0  0  0
 17 18  1  0  0  0  0
 18 19  1  0  0  0  0
 20 24  2  0  0  0  0
 20 21  1  0  0  0  0
 21 22  2  0  0  0  0
 23 22  1  0  0  0  0
 24 23  1  0  0  0  0
 25 29  1  1  0  0  0
 26 25  1  0  0  0  0
 26 28  1  0  0  0  0
 27 26  2  0  0  0  0
 29 30  1  0  0  0  0
 30 31  2  0  0  0  0
 30 38  1  0  0  0  0
 31 32  1  0  0  0  0
 32 33  1  0  0  0  0
 32 39  1  0  0  0  0
 33 34  1  0  0  0  0
 35 34  2  0  0  0  0
 36 40  1  0  0  0  0
 36 35  1  0  0  0  0
 37 38  1  0  0  0  0
 37 36  2  0  0  0  0
 38 33  2  0  0  0  0
 41 40  1  0  0  0  0
 42 43  2  0  0  0  0
 42 44  2  0  0  0  0
 42 40  1  0  0  0  0
 45 42  1  0  0  0  0
 46 45  1  0  0  0  0
 47 45  1  0  0  0  0
 48 45  1  0  0  0  0
M  END
>  <minimizedAffinity>
-8.58776665

$$$$
