
 OpenBabel09122222393D

 43 47  0  0  1  0  0  0  0  0999 V2000
    3.8160   -6.2310    6.5150 C   0  0  1  0  0  3  0  0  0  0  0  0
    4.1500   -5.2350    5.7290 N   0  0  0  0  0  0  0  0  0  0  0  0
    5.1580   -4.0490    6.1120 S   0  0  0  0  0  0  0  0  0  0  0  0
    6.5170   -4.4040    5.7560 O   0  0  0  0  0  0  0  0  0  0  0  0
    4.5950   -2.7960    5.6480 O   0  0  0  0  0  0  0  0  0  0  0  0
    5.1190   -3.9830    7.8710 C   0  0  0  0  0  0  0  0  0  0  0  0
    5.3570   -2.7800    8.5370 C   0  0  0  0  0  3  0  0  0  0  0  0
    5.2380   -2.7360    9.9230 C   0  0  0  0  0  0  0  0  0  0  0  0
    5.0030   -3.9210   10.6240 C   0  0  0  0  0  3  0  0  0  0  0  0
    4.7630   -5.1200    9.9390 C   0  0  0  0  0  3  0  0  0  0  0  0
    4.7710   -5.1480    8.5460 C   0  0  0  0  0  0  0  0  0  0  0  0
    4.3030   -6.2570    7.8450 N   0  0  0  0  0  0  0  0  0  0  0  0
    3.7590   -5.2080    4.7920 H   0  0  0  0  0  0  0  0  0  0  0  0
    4.0660   -7.0980    8.3730 H   0  0  0  0  0  0  0  0  0  0  0  0
    2.4480   -8.9830    4.3160 N   0  0  0  0  0  0  0  0  0  0  0  0
    3.3490   -8.3080    5.1080 C   0  0  0  0  0  0  0  0  0  0  0  0
    4.5740   -8.4260    5.0050 O   0  0  0  0  0  0  0  0  0  0  0  0
    2.8250   -7.2700    6.0480 C   0  0  0  0  0  0  0  0  0  0  0  0
    1.5020   -7.2310    6.2900 C   0  0  0  0  0  0  0  0  0  0  0  0
    0.5860   -8.1950    5.6550 C   0  0  0  0  0  0  0  0  0  0  0  0
   -0.7630   -8.3340    6.0070 C   0  0  0  0  0  3  0  0  0  0  0  0
   -1.5890   -9.1910    5.2840 C   0  0  0  0  0  3  0  0  0  0  0  0
   -1.0380   -9.8890    4.2280 C   0  0  0  0  0  3  0  0  0  0  0  0
    0.2620   -9.8060    3.8820 N   0  0  0  0  0  0  0  0  0  0  0  0
    1.0630   -8.9910    4.6070 C   0  0  0  0  0  0  0  0  0  0  0  0
    0.9500   -6.2180    7.0620 O   0  0  0  0  0  0  0  0  0  0  0  0
    0.0020   -6.1310    6.8550 H   0  0  0  0  0  0  0  0  0  0  0  0
    2.9220   -9.7090    3.1350 C   0  0  0  0  0  2  0  0  0  0  0  0
    2.9370   -8.8260    1.8720 C   0  0  0  0  0  2  0  0  0  0  0  0
    4.6010   -8.1870    0.0430 C   0  0  0  0  0  1  0  0  0  0  0  0
    4.2970   -8.1710    1.5420 C   0  0  0  0  0  3  0  0  0  0  0  0
    4.3200   -6.7260    2.0490 C   0  0  0  0  0  1  0  0  0  0  0  0
    5.3830   -1.4540   10.5250 N   0  0  0  0  0  0  0  0  0  0  0  0
    5.3790   -1.4400   11.5440 H   0  0  0  0  0  0  0  0  0  0  0  0
    4.6880   -0.0680    9.9010 S   0  0  0  0  0  0  0  0  0  0  0  0
    3.5000    0.2300   10.6690 O   0  0  0  0  0  0  0  0  0  0  0  0
    5.7330    0.9200    9.7640 O   0  0  0  0  0  0  0  0  0  0  0  0
    4.1640   -0.5390    8.3480 N   0  0  0  0  0  0  0  0  0  0  0  0
    4.4750   -1.4990    8.1760 H   0  0  0  0  0  0  0  0  0  0  0  0
    2.7680   -0.3610    8.2240 N   0  0  0  0  0  0  0  0  0  0  0  0
    1.9950   -1.5640    8.6380 C   0  0  0  0  0  2  0  0  0  0  0  0
    2.0280   -2.0590    7.1830 C   0  0  0  0  0  2  0  0  0  0  0  0
    2.3310   -0.5960    6.8230 C   0  0  0  0  0  2  0  0  0  0  0  0
  1 18  1  1  0  0  0
  1 12  1  0  0  0  0
  2  3  1  0  0  0  0
  2  1  1  0  0  0  0
  3  6  1  0  0  0  0
  4  3  2  0  0  0  0
  5  3  2  0  0  0  0
  6  7  2  0  0  0  0
  6 11  1  0  0  0  0
  7  8  1  0  0  0  0
  8 33  1  0  0  0  0
  8  9  2  0  0  0  0
 10  9  1  0  0  0  0
 11 10  2  0  0  0  0
 12 14  1  0  0  0  0
 12 11  1  0  0  0  0
 13  2  1  0  0  0  0
 15 25  1  0  0  0  0
 15 16  1  0  0  0  0
 16 18  1  0  0  0  0
 17 16  2  0  0  0  0
 18 19  2  0  0  0  0
 19 26  1  0  0  0  0
 20 21  1  0  0  0  0
 20 19  1  0  0  0  0
 22 21  2  0  0  0  0
 23 22  1  0  0  0  0
 24 23  2  0  0  0  0
 24 25  1  0  0  0  0
 25 20  2  0  0  0  0
 27 26  1  0  0  0  0
 28 15  1  0  0  0  0
 29 28  1  0  0  0  0
 30 31  1  0  0  0  0
 31 29  1  0  0  0  0
 31 32  1  0  0  0  0
 33 34  1  0  0  0  0
 35 33  1  0  0  0  0
 35 36  2  0  0  0  0
 37 35  2  0  0  0  0
 38 35  1  0  0  0  0
 39 38  1  0  0  0  0
 40 38  1  0  0  0  0
 40 41  1  0  0  0  0
 42 41  1  0  0  0  0
 43 42  1  0  0  0  0
 43 40  1  0  0  0  0
M  END
>  <minimizedAffinity>
-4.80220747

$$$$
