
 OpenBabel09122222393D

 43 47  0  0  1  0  0  0  0  0999 V2000
    3.4230   -8.5210    5.2020 C   0  0  1  0  0  3  0  0  0  0  0  0
    3.8660   -8.2700    6.4110 N   0  0  0  0  0  0  0  0  0  0  0  0
    3.3030   -8.9290    7.7600 S   0  0  0  0  0  0  0  0  0  0  0  0
    4.0220  -10.1500    8.0660 O   0  0  0  0  0  0  0  0  0  0  0  0
    3.1850   -7.8910    8.7660 O   0  0  0  0  0  0  0  0  0  0  0  0
    1.6600   -9.4190    7.3630 C   0  0  0  0  0  0  0  0  0  0  0  0
    0.6800   -9.4680    8.3560 C   0  0  0  0  0  3  0  0  0  0  0  0
   -0.6300   -9.7780    8.0020 C   0  0  0  0  0  0  0  0  0  0  0  0
   -0.9100  -10.1500    6.6850 C   0  0  0  0  0  3  0  0  0  0  0  0
    0.0860  -10.0920    5.7000 C   0  0  0  0  0  3  0  0  0  0  0  0
    1.3750   -9.6760    6.0270 C   0  0  0  0  0  0  0  0  0  0  0  0
    2.3090   -9.3800    5.0360 N   0  0  0  0  0  0  0  0  0  0  0  0
    4.6380   -7.6190    6.5160 H   0  0  0  0  0  0  0  0  0  0  0  0
    2.0690   -9.5900    4.0670 H   0  0  0  0  0  0  0  0  0  0  0  0
    4.3970   -5.5650    3.0590 N   0  0  0  0  0  0  0  0  0  0  0  0
    4.2920   -6.3470    4.1870 C   0  0  0  0  0  0  0  0  0  0  0  0
    4.3000   -5.8960    5.3370 O   0  0  0  0  0  0  0  0  0  0  0  0
    4.0150   -7.8060    4.0110 C   0  0  0  0  0  0  0  0  0  0  0  0
    4.1550   -8.3440    2.7850 C   0  0  0  0  0  0  0  0  0  0  0  0
    4.5860   -7.5220    1.6410 C   0  0  0  0  0  0  0  0  0  0  0  0
    4.9360   -8.0510    0.3920 C   0  0  0  0  0  3  0  0  0  0  0  0
    5.2270   -7.1990   -0.6710 C   0  0  0  0  0  3  0  0  0  0  0  0
    5.1610   -5.8380   -0.4510 C   0  0  0  0  0  3  0  0  0  0  0  0
    4.8600   -5.2940    0.7440 N   0  0  0  0  0  0  0  0  0  0  0  0
    4.6060   -6.1300    1.7780 C   0  0  0  0  0  0  0  0  0  0  0  0
    3.7990   -9.6630    2.5440 O   0  0  0  0  0  0  0  0  0  0  0  0
    3.6300   -9.7860    1.5920 H   0  0  0  0  0  0  0  0  0  0  0  0
    4.2830   -4.1090    3.1740 C   0  0  0  0  0  2  0  0  0  0  0  0
    2.9990   -3.6780    3.9110 C   0  0  0  0  0  2  0  0  0  0  0  0
    1.7700   -1.8040    5.1360 C   0  0  0  0  0  1  0  0  0  0  0  0
    3.1300   -2.4060    4.7770 C   0  0  0  0  0  3  0  0  0  0  0  0
    3.9000   -2.7230    6.0630 C   0  0  0  0  0  1  0  0  0  0  0  0
   -1.5970   -9.6990    9.0440 N   0  0  0  0  0  0  0  0  0  0  0  0
   -2.2380  -10.4880    9.1140 H   0  0  0  0  0  0  0  0  0  0  0  0
   -2.3470   -8.2740    9.4880 S   0  0  0  0  0  0  0  0  0  0  0  0
   -3.7320   -8.5620    9.7870 O   0  0  0  0  0  0  0  0  0  0  0  0
   -1.5100   -7.6290   10.4730 O   0  0  0  0  0  0  0  0  0  0  0  0
   -2.3360   -7.3450    8.0580 N   0  0  0  0  0  0  0  0  0  0  0  0
   -1.6050   -7.7070    7.4410 H   0  0  0  0  0  0  0  0  0  0  0  0
   -3.6210   -7.3270    7.4720 N   0  0  0  0  0  0  0  0  0  0  0  0
   -3.8400   -8.4610    6.5320 C   0  0  0  0  0  2  0  0  0  0  0  0
   -3.3390   -7.5750    5.3800 C   0  0  0  0  0  2  0  0  0  0  0  0
   -3.6570   -6.3970    6.3140 C   0  0  0  0  0  2  0  0  0  0  0  0
  1 18  1  1  0  0  0
  1  2  1  0  0  0  0
  2 13  1  0  0  0  0
  2  3  1  0  0  0  0
  3  4  2  0  0  0  0
  3  5  2  0  0  0  0
  6  3  1  0  0  0  0
  6  7  1  0  0  0  0
  8  7  2  0  0  0  0
  8 33  1  0  0  0  0
  9  8  1  0  0  0  0
 10 11  1  0  0  0  0
 10  9  2  0  0  0  0
 11  6  2  0  0  0  0
 12  1  1  0  0  0  0
 12 11  1  0  0  0  0
 14 12  1  0  0  0  0
 15 28  1  0  0  0  0
 15 16  1  0  0  0  0
 16 17  2  0  0  0  0
 18 16  1  0  0  0  0
 19 18  2  0  0  0  0
 20 25  1  0  0  0  0
 20 19  1  0  0  0  0
 21 20  2  0  0  0  0
 22 23  2  0  0  0  0
 22 21  1  0  0  0  0
 23 24  1  0  0  0  0
 24 25  2  0  0  0  0
 25 15  1  0  0  0  0
 26 19  1  0  0  0  0
 27 26  1  0  0  0  0
 28 29  1  0  0  0  0
 29 31  1  0  0  0  0
 31 30  1  0  0  0  0
 31 32  1  0  0  0  0
 33 34  1  0  0  0  0
 33 35  1  0  0  0  0
 35 36  2  0  0  0  0
 35 37  2  0  0  0  0
 38 35  1  0  0  0  0
 39 38  1  0  0  0  0
 40 38  1  0  0  0  0
 41 40  1  0  0  0  0
 42 43  1  0  0  0  0
 42 41  1  0  0  0  0
 43 40  1  0  0  0  0
M  END
>  <minimizedAffinity>
-7.09607458

$$$$
