
 OpenBabel09122222393D

 15 15  0  0  0  0  0  0  0  0999 V2000
    9.4770   -2.9720    0.6050 C   0  0  0  0  0  0  0  0  0  0  0  0
    9.3190   -3.6070    1.7740 C   0  0  0  0  0  3  0  0  0  0  0  0
    9.2030   -2.8110    2.9980 C   0  0  0  0  0  0  0  0  0  0  0  0
    9.0760   -3.3290    4.1090 O   0  0  0  0  0  0  0  0  0  0  0  0
    9.2360   -1.3320    2.8710 C   0  0  0  0  0  0  0  0  0  0  0  0
    9.4020   -0.8100    1.6470 C   0  0  0  0  0  0  0  0  0  0  0  0
    9.5410   -1.5840    0.4920 O   0  0  0  0  0  0  0  0  0  0  0  0
   10.6880   -3.7140   -1.3110 O   0  0  0  0  0  0  0  0  0  0  0  0
    9.5920   -3.8310   -0.6790 C   0  0  0  0  0  0  0  0  0  0  0  0
    8.5750   -4.5090   -0.9990 O   0  0  0  0  0  1  0  0  0  0  0  0
    9.4390    0.7120    1.4740 C   0  0  0  0  0  0  0  0  0  0  0  0
    8.7500    1.3810    2.3060 O   0  0  0  0  0  1  0  0  0  0  0  0
   10.1470    1.1380    0.5120 O   0  0  0  0  0  0  0  0  0  0  0  0
    9.0880   -0.6020    4.0360 O   0  0  0  0  0  0  0  0  0  0  0  0
    9.0170   -1.2850    4.7300 H   0  0  0  0  0  0  0  0  0  0  0  0
  1  2  2  0  0  0  0
  2  3  1  0  0  0  0
  3  4  2  0  0  0  0
  5  3  1  0  0  0  0
  5 14  1  0  0  0  0
  6  5  2  0  0  0  0
  7  1  1  0  0  0  0
  7  6  1  0  0  0  0
  8  9  2  0  0  0  0
  9  1  1  0  0  0  0
 10  9  1  0  0  0  0
 11  6  1  0  0  0  0
 11 12  1  0  0  0  0
 13 11  2  0  0  0  0
 14 15  1  0  0  0  0
M  END
>  <minimizedAffinity>
-5.42923403

$$$$
