
 OpenBabel09122222393D

 15 15  0  0  0  0  0  0  0  0999 V2000
    9.8130   -2.3990    0.1670 C   0  0  0  0  0  0  0  0  0  0  0  0
    9.3650   -1.9350    1.3410 C   0  0  0  0  0  3  0  0  0  0  0  0
    9.3440   -0.4880    1.5660 C   0  0  0  0  0  0  0  0  0  0  0  0
    8.9630    0.0060    2.6280 O   0  0  0  0  0  0  0  0  0  0  0  0
    9.7940    0.3940    0.4580 C   0  0  0  0  0  0  0  0  0  0  0  0
   10.2250   -0.1870   -0.6710 C   0  0  0  0  0  0  0  0  0  0  0  0
   10.2670   -1.5710   -0.8580 O   0  0  0  0  0  0  0  0  0  0  0  0
    8.6880   -4.4980    0.0410 O   0  0  0  0  0  1  0  0  0  0  0  0
    9.8220   -3.9320   -0.0540 C   0  0  0  0  0  0  0  0  0  0  0  0
   10.9490   -4.4700   -0.2450 O   0  0  0  0  0  0  0  0  0  0  0  0
   10.6960    0.6890   -1.8370 C   0  0  0  0  0  0  0  0  0  0  0  0
   10.9580    1.8980   -1.5510 O   0  0  0  0  0  1  0  0  0  0  0  0
   10.7640    0.1120   -2.9640 O   0  0  0  0  0  0  0  0  0  0  0  0
    9.7310    1.7570    0.6810 O   0  0  0  0  0  0  0  0  0  0  0  0
    9.4040    1.8270    1.5980 H   0  0  0  0  0  0  0  0  0  0  0  0
  1  2  2  0  0  0  0
  2  3  1  0  0  0  0
  3  4  2  0  0  0  0
  5 14  1  0  0  0  0
  5  3  1  0  0  0  0
  6  5  2  0  0  0  0
  7  6  1  0  0  0  0
  7  1  1  0  0  0  0
  9  8  1  0  0  0  0
  9  1  1  0  0  0  0
 10  9  2  0  0  0  0
 11 12  1  0  0  0  0
 11  6  1  0  0  0  0
 13 11  2  0  0  0  0
 14 15  1  0  0  0  0
M  END
>  <minimizedAffinity>
-5.22458887

$$$$
