
 OpenBabel09122222393D

 15 15  0  0  0  0  0  0  0  0999 V2000
    9.9370   -2.3690   -0.0640 C   0  0  0  0  0  0  0  0  0  0  0  0
    9.3660   -2.1240    1.1230 C   0  0  0  0  0  3  0  0  0  0  0  0
    9.2280   -0.7340    1.5660 C   0  0  0  0  0  0  0  0  0  0  0  0
    8.7330   -0.4370    2.6540 O   0  0  0  0  0  0  0  0  0  0  0  0
    9.7040    0.3360    0.6510 C   0  0  0  0  0  0  0  0  0  0  0  0
   10.2600   -0.0320   -0.5110 C   0  0  0  0  0  0  0  0  0  0  0  0
   10.4120   -1.3640   -0.9050 O   0  0  0  0  0  0  0  0  0  0  0  0
   10.9590   -4.0630   -1.3950 O   0  0  0  0  0  0  0  0  0  0  0  0
   10.0670   -3.8440   -0.5160 C   0  0  0  0  0  0  0  0  0  0  0  0
    9.2460   -4.6640   -0.0180 O   0  0  0  0  0  1  0  0  0  0  0  0
   10.7610    1.0430   -1.4820 C   0  0  0  0  0  0  0  0  0  0  0  0
   10.9540    0.6620   -2.6780 O   0  0  0  0  0  0  0  0  0  0  0  0
   10.9380    2.1950   -0.9820 O   0  0  0  0  0  1  0  0  0  0  0  0
    9.5300    1.6410    1.0750 O   0  0  0  0  0  0  0  0  0  0  0  0
    9.1270    1.5460    1.9590 H   0  0  0  0  0  0  0  0  0  0  0  0
  1  2  2  0  0  0  0
  2  3  1  0  0  0  0
  3  4  2  0  0  0  0
  5 14  1  0  0  0  0
  5  3  1  0  0  0  0
  6  5  2  0  0  0  0
  7  6  1  0  0  0  0
  7  1  1  0  0  0  0
  8  9  2  0  0  0  0
  9  1  1  0  0  0  0
  9 10  1  0  0  0  0
 11 13  1  0  0  0  0
 11  6  1  0  0  0  0
 12 11  2  0  0  0  0
 14 15  1  0  0  0  0
M  END
>  <minimizedAffinity>
-5.23662424

$$$$
