
 OpenBabel09122222393D

 15 15  0  0  0  0  0  0  0  0999 V2000
    9.5980   -1.9940    2.7860 C   0  0  0  0  0  0  0  0  0  0  0  0
    9.3010   -0.6890    2.8340 C   0  0  0  0  0  3  0  0  0  0  0  0
    9.3490    0.0910    1.5940 C   0  0  0  0  0  0  0  0  0  0  0  0
    9.1090    1.2990    1.5690 O   0  0  0  0  0  0  0  0  0  0  0  0
    9.6960   -0.6220    0.3380 C   0  0  0  0  0  0  0  0  0  0  0  0
    9.9760   -1.9300    0.4150 C   0  0  0  0  0  0  0  0  0  0  0  0
    9.9550   -2.6540    1.6110 O   0  0  0  0  0  0  0  0  0  0  0  0
   10.6040   -2.7990    4.7930 O   0  0  0  0  0  1  0  0  0  0  0  0
    9.5350   -2.8030    4.1050 C   0  0  0  0  0  0  0  0  0  0  0  0
    8.4610   -3.4270    4.3360 O   0  0  0  0  0  0  0  0  0  0  0  0
   10.3360   -2.7010   -0.8590 C   0  0  0  0  0  0  0  0  0  0  0  0
    9.9820   -3.9200   -0.8880 O   0  0  0  0  0  1  0  0  0  0  0  0
   10.9590   -2.0400   -1.7440 O   0  0  0  0  0  0  0  0  0  0  0  0
    9.6990    0.1280   -0.8240 O   0  0  0  0  0  0  0  0  0  0  0  0
    9.4820    1.0290   -0.5190 H   0  0  0  0  0  0  0  0  0  0  0  0
  1  2  2  0  0  0  0
  1  9  1  0  0  0  0
  3  2  1  0  0  0  0
  4  3  2  0  0  0  0
  5  6  2  0  0  0  0
  5  3  1  0  0  0  0
  6  7  1  0  0  0  0
  7  1  1  0  0  0  0
  9 10  2  0  0  0  0
  9  8  1  0  0  0  0
 11  6  1  0  0  0  0
 12 11  1  0  0  0  0
 13 11  2  0  0  0  0
 14 15  1  0  0  0  0
 14  5  1  0  0  0  0
M  END
>  <minimizedAffinity>
-5.54214621

$$$$
