
 OpenBabel09122222393D

 15 15  0  0  0  0  0  0  0  0999 V2000
   10.4760   -0.9490   -1.1430 C   0  0  0  0  0  0  0  0  0  0  0  0
   10.6530   -2.2740   -1.2350 C   0  0  0  0  0  3  0  0  0  0  0  0
   10.3650   -3.1070   -0.0640 C   0  0  0  0  0  0  0  0  0  0  0  0
   10.5250   -4.3280   -0.0720 O   0  0  0  0  0  0  0  0  0  0  0  0
    9.8590   -2.4330    1.1600 C   0  0  0  0  0  0  0  0  0  0  0  0
    9.7250   -1.1000    1.1330 C   0  0  0  0  0  0  0  0  0  0  0  0
   10.0320   -0.3170    0.0170 O   0  0  0  0  0  0  0  0  0  0  0  0
   10.9570    1.1510   -2.1650 O   0  0  0  0  0  1  0  0  0  0  0  0
   10.7790   -0.0870   -2.3920 C   0  0  0  0  0  0  0  0  0  0  0  0
   10.7620   -0.6810   -3.5080 O   0  0  0  0  0  0  0  0  0  0  0  0
    9.2030   -0.3700    2.3750 C   0  0  0  0  0  0  0  0  0  0  0  0
    8.7620    0.8050    2.1820 O   0  0  0  0  0  0  0  0  0  0  0  0
    9.2790   -1.0150    3.4650 O   0  0  0  0  0  1  0  0  0  0  0  0
    9.5600   -3.2440    2.2390 O   0  0  0  0  0  0  0  0  0  0  0  0
    9.7960   -4.1390    1.9290 H   0  0  0  0  0  0  0  0  0  0  0  0
  1  7  1  0  0  0  0
  2  1  2  0  0  0  0
  2  3  1  0  0  0  0
  3  5  1  0  0  0  0
  4  3  2  0  0  0  0
  5 14  1  0  0  0  0
  6  5  2  0  0  0  0
  6 11  1  0  0  0  0
  7  6  1  0  0  0  0
  9  8  1  0  0  0  0
  9  1  1  0  0  0  0
 10  9  2  0  0  0  0
 11 13  1  0  0  0  0
 12 11  2  0  0  0  0
 15 14  1  0  0  0  0
M  END
>  <minimizedAffinity>
-5.34812546

$$$$
