
 OpenBabel09122222393D

 30 33  0  0  0  0  0  0  0  0999 V2000
    4.7690   -4.6260    3.9130 C   0  0  0  0  0  0  0  0  0  0  0  0
    4.5920   -5.8290    4.5570 C   0  0  0  0  0  3  0  0  0  0  0  0
    4.4890   -6.9380    3.7300 N   0  0  0  0  0  0  0  0  0  0  0  0
    4.6440   -6.5700    2.4760 C   0  0  0  0  0  0  0  0  0  0  0  0
    4.6080   -7.4540    1.3890 N   0  0  0  0  0  0  0  0  0  0  0  0
    5.2110   -7.1630    0.1530 C   0  0  0  0  0  0  0  0  0  0  0  0
    4.8630   -7.6780   -0.9130 O   0  0  0  0  0  0  0  0  0  0  0  0
    4.7120   -4.8690    2.2280 S   0  0  0  0  0  0  0  0  0  0  0  0
    6.4300   -6.3140    0.0960 C   0  0  0  0  0  0  0  0  0  0  0  0
    7.3500   -6.3810    1.1510 C   0  0  0  0  0  3  0  0  0  0  0  0
    8.5440   -5.6640    1.0740 C   0  0  0  0  0  3  0  0  0  0  0  0
    8.8070   -4.8840   -0.0530 C   0  0  0  0  0  0  0  0  0  0  0  0
    7.8510   -4.7390   -1.0630 C   0  0  0  0  0  3  0  0  0  0  0  0
    6.6570   -5.4540   -0.9890 C   0  0  0  0  0  3  0  0  0  0  0  0
   10.0220   -4.2460   -0.1240 O   0  0  0  0  0  0  0  0  0  0  0  0
   10.0030   -2.8670   -0.0540 C   0  0  0  0  0  0  0  0  0  0  0  0
    9.4430   -2.1450    1.0050 C   0  0  0  0  0  3  0  0  0  0  0  0
    9.4650   -0.7490    0.9880 C   0  0  0  0  0  3  0  0  0  0  0  0
   10.0250   -0.0730   -0.0960 C   0  0  0  0  0  3  0  0  0  0  0  0
   10.5610   -0.7910   -1.1660 C   0  0  0  0  0  3  0  0  0  0  0  0
   10.5450   -2.1870   -1.1480 C   0  0  0  0  0  3  0  0  0  0  0  0
    3.9580   -8.7730    1.5100 C   0  0  0  0  0  3  0  0  0  0  0  0
    3.8990   -9.2620    2.9690 C   0  0  0  0  0  2  0  0  0  0  0  0
    3.2800  -10.6560    3.0640 C   0  0  0  0  0  2  0  0  0  0  0  0
    1.9130  -10.7150    2.3870 C   0  0  0  0  0  2  0  0  0  0  0  0
    1.9790  -10.2420    0.9370 C   0  0  0  0  0  2  0  0  0  0  0  0
    2.5800   -8.8420    0.8270 C   0  0  0  0  0  2  0  0  0  0  0  0
    6.1260   -3.1160    5.0650 O   0  0  0  0  0  1  0  0  0  0  0  0
    4.9650   -3.3380    4.6020 C   0  0  0  0  0  0  0  0  0  0  0  0
    3.9710   -2.5500    4.6590 O   0  0  0  0  0  0  0  0  0  0  0  0
  1  2  2  0  0  0  0
  1 29  1  0  0  0  0
  3  2  1  0  0  0  0
  4  3  2  0  0  0  0
  5 22  1  0  0  0  0
  5  4  1  0  0  0  0
  6  5  1  0  0  0  0
  7  6  2  0  0  0  0
  8  4  1  0  0  0  0
  8  1  1  0  0  0  0
  9  6  1  0  0  0  0
  9 10  1  0  0  0  0
 11 10  2  0  0  0  0
 12 11  1  0  0  0  0
 13 14  1  0  0  0  0
 13 12  2  0  0  0  0
 14  9  2  0  0  0  0
 15 16  1  0  0  0  0
 15 12  1  0  0  0  0
 16 17  1  0  0  0  0
 18 17  2  0  0  0  0
 19 18  1  0  0  0  0
 20 21  1  0  0  0  0
 20 19  2  0  0  0  0
 21 16  2  0  0  0  0
 22 23  1  0  0  0  0
 23 24  1  0  0  0  0
 25 24  1  0  0  0  0
 26 25  1  0  0  0  0
 27 26  1  0  0  0  0
 27 22  1  0  0  0  0
 29 30  2  0  0  0  0
 29 28  1  0  0  0  0
M  END
>  <minimizedAffinity>
-7.80460072

$$$$
