
 OpenBabel09122222393D

 30 33  0  0  0  0  0  0  0  0999 V2000
    3.8920   -4.1780    3.7310 C   0  0  0  0  0  0  0  0  0  0  0  0
    3.6410   -5.4010    4.3110 C   0  0  0  0  0  3  0  0  0  0  0  0
    3.9870   -6.5060    3.5470 N   0  0  0  0  0  0  0  0  0  0  0  0
    4.5460   -6.1080    2.4240 C   0  0  0  0  0  0  0  0  0  0  0  0
    5.0210   -6.9790    1.4330 N   0  0  0  0  0  0  0  0  0  0  0  0
    5.9960   -6.6000    0.4930 C   0  0  0  0  0  0  0  0  0  0  0  0
    6.1300   -7.1450   -0.6050 O   0  0  0  0  0  0  0  0  0  0  0  0
    4.4900   -4.4100    2.1530 S   0  0  0  0  0  0  0  0  0  0  0  0
    7.0360   -5.6010    0.8540 C   0  0  0  0  0  0  0  0  0  0  0  0
    7.9670   -5.2140   -0.1190 C   0  0  0  0  0  3  0  0  0  0  0  0
    8.8920   -4.2110    0.1710 C   0  0  0  0  0  3  0  0  0  0  0  0
    8.8820   -3.6080    1.4280 C   0  0  0  0  0  0  0  0  0  0  0  0
    8.0190   -4.0570    2.4320 C   0  0  0  0  0  3  0  0  0  0  0  0
    7.0930   -5.0590    2.1470 C   0  0  0  0  0  3  0  0  0  0  0  0
    9.7630   -2.5770    1.6540 O   0  0  0  0  0  0  0  0  0  0  0  0
   10.0360   -1.7490    0.5820 C   0  0  0  0  0  0  0  0  0  0  0  0
    9.6150   -0.4190    0.4940 C   0  0  0  0  0  3  0  0  0  0  0  0
    9.9330    0.3420   -0.6320 C   0  0  0  0  0  3  0  0  0  0  0  0
   10.6530   -0.2300   -1.6800 C   0  0  0  0  0  3  0  0  0  0  0  0
   11.0520   -1.5660   -1.6070 C   0  0  0  0  0  3  0  0  0  0  0  0
   10.7390   -2.3260   -0.4780 C   0  0  0  0  0  3  0  0  0  0  0  0
    4.5390   -8.3710    1.3590 C   0  0  0  0  0  3  0  0  0  0  0  0
    4.8040   -9.1510    2.6590 C   0  0  0  0  0  2  0  0  0  0  0  0
    4.3560  -10.6070    2.5370 C   0  0  0  0  0  2  0  0  0  0  0  0
    2.9000  -10.7150    2.0950 C   0  0  0  0  0  2  0  0  0  0  0  0
    2.6440   -9.9520    0.7980 C   0  0  0  0  0  2  0  0  0  0  0  0
    3.0720   -8.4890    0.9090 C   0  0  0  0  0  2  0  0  0  0  0  0
    2.5580   -2.3070    4.1420 O   0  0  0  0  0  0  0  0  0  0  0  0
    3.6610   -2.8830    4.3940 C   0  0  0  0  0  0  0  0  0  0  0  0
    4.5680   -2.4570    5.1730 O   0  0  0  0  0  1  0  0  0  0  0  0
  1  2  2  0  0  0  0
  1 29  1  0  0  0  0
  3  2  1  0  0  0  0
  4  3  2  0  0  0  0
  5  4  1  0  0  0  0
  6  9  1  0  0  0  0
  6  5  1  0  0  0  0
  7  6  2  0  0  0  0
  8  4  1  0  0  0  0
  8  1  1  0  0  0  0
  9 14  1  0  0  0  0
 10 11  1  0  0  0  0
 10  9  2  0  0  0  0
 11 12  2  0  0  0  0
 12 15  1  0  0  0  0
 12 13  1  0  0  0  0
 14 13  2  0  0  0  0
 16 15  1  0  0  0  0
 17 16  1  0  0  0  0
 18 17  2  0  0  0  0
 19 20  2  0  0  0  0
 19 18  1  0  0  0  0
 20 21  1  0  0  0  0
 21 16  2  0  0  0  0
 22  5  1  0  0  0  0
 22 23  1  0  0  0  0
 24 23  1  0  0  0  0
 25 24  1  0  0  0  0
 26 27  1  0  0  0  0
 26 25  1  0  0  0  0
 27 22  1  0  0  0  0
 28 29  2  0  0  0  0
 29 30  1  0  0  0  0
M  END
>  <minimizedAffinity>
-6.06186771

$$$$
