
 OpenBabel09122222393D

 29 31  0  0  0  0  0  0  0  0999 V2000
   10.7400   -2.9350    0.2630 N   0  0  0  0  0  0  0  0  0  0  0  0
   11.3370   -2.4350    0.9600 H   0  0  0  0  0  0  0  0  0  0  0  0
    9.1130   -3.0730    2.1120 C   0  0  0  0  0  0  0  0  0  0  0  0
    7.6660   -3.8740    2.5350 S   0  0  0  0  0  0  0  0  0  0  0  0
    7.6190   -4.7450    1.0590 C   0  0  0  0  0  0  0  0  0  0  0  0
    8.7180   -4.4350    0.2780 C   0  0  0  0  0  3  0  0  0  0  0  0
    9.5700   -3.4510    0.8630 C   0  0  0  0  0  0  0  0  0  0  0  0
    6.5310   -5.6940    0.7750 C   0  0  0  0  0  0  0  0  0  0  0  0
    5.6230   -6.0950    1.7670 C   0  0  0  0  0  3  0  0  0  0  0  0
    4.5840   -6.9830    1.4720 C   0  0  0  0  0  3  0  0  0  0  0  0
    4.4350   -7.4790    0.1800 C   0  0  0  0  0  3  0  0  0  0  0  0
    5.3250   -7.0900   -0.8180 C   0  0  0  0  0  3  0  0  0  0  0  0
    6.3640   -6.2020   -0.5220 C   0  0  0  0  0  3  0  0  0  0  0  0
   10.9940   -2.3320    3.2990 O   0  0  0  0  0  1  0  0  0  0  0  0
    9.7900   -2.0640    2.9700 C   0  0  0  0  0  0  0  0  0  0  0  0
    9.1380   -1.0280    3.2970 O   0  0  0  0  0  0  0  0  0  0  0  0
   10.7450   -2.1740   -1.2380 S   0  0  0  0  0  0  0  0  0  0  0  0
   11.9740   -2.4980   -1.9370 O   0  0  0  0  0  0  0  0  0  0  0  0
    9.4670   -2.4250   -1.8890 O   0  0  0  0  0  0  0  0  0  0  0  0
   10.7890   -0.4270   -0.8230 C   0  0  0  0  0  0  0  0  0  0  0  0
   11.5770    0.4540   -1.5450 C   0  0  0  0  0  3  0  0  0  0  0  0
   11.4980    1.8040   -1.2130 C   0  0  0  0  0  3  0  0  0  0  0  0
   10.6330    2.2240   -0.1920 C   0  0  0  0  0  0  0  0  0  0  0  0
    9.8960    1.2530    0.4760 C   0  0  0  0  0  3  0  0  0  0  0  0
    9.9610   -0.0640    0.1920 N   0  0  0  0  0  0  0  0  0  0  0  0
   10.5170    3.6590    0.2150 C   0  0  0  0  0  0  0  0  0  0  0  0
   11.5140    4.4470   -0.2730 F   0  0  0  0  0  0  0  0  0  0  0  0
    9.3530    4.2240   -0.2110 F   0  0  0  0  0  0  0  0  0  0  0  0
   10.5340    3.8360    1.5680 F   0  0  0  0  0  0  0  0  0  0  0  0
  1  7  1  0  0  0  0
  1  2  1  0  0  0  0
  3  4  1  0  0  0  0
  3 15  1  0  0  0  0
  5  4  1  0  0  0  0
  6  7  1  0  0  0  0
  6  5  2  0  0  0  0
  7  3  2  0  0  0  0
  8  5  1  0  0  0  0
  8  9  1  0  0  0  0
 10  9  2  0  0  0  0
 11 10  1  0  0  0  0
 12 13  1  0  0  0  0
 12 11  2  0  0  0  0
 13  8  2  0  0  0  0
 15 16  2  0  0  0  0
 15 14  1  0  0  0  0
 17 20  1  0  0  0  0
 17  1  1  0  0  0  0
 18 17  2  0  0  0  0
 19 17  2  0  0  0  0
 20 25  1  0  0  0  0
 21 22  1  0  0  0  0
 21 20  2  0  0  0  0
 22 23  2  0  0  0  0
 23 26  1  0  0  0  0
 23 24  1  0  0  0  0
 25 24  2  0  0  0  0
 26 29  1  0  0  0  0
 27 26  1  0  0  0  0
 28 26  1  0  0  0  0
M  END
>  <minimizedAffinity>
-5.8729949

$$$$
