
 OpenBabel09122222393D

 29 31  0  0  0  0  0  0  0  0999 V2000
    9.6400   -2.5140    0.2810 N   0  0  0  0  0  0  0  0  0  0  0  0
    8.9430   -2.8810   -0.4060 H   0  0  0  0  0  0  0  0  0  0  0  0
   11.3010   -1.4330   -1.1870 C   0  0  0  0  0  0  0  0  0  0  0  0
   11.8960    0.1170   -1.5840 S   0  0  0  0  0  0  0  0  0  0  0  0
   10.8440    0.8960   -0.4760 C   0  0  0  0  0  0  0  0  0  0  0  0
   10.0760   -0.0350    0.1980 C   0  0  0  0  0  3  0  0  0  0  0  0
   10.3110   -1.3790   -0.2240 C   0  0  0  0  0  0  0  0  0  0  0  0
   10.8610    2.3590   -0.3180 C   0  0  0  0  0  0  0  0  0  0  0  0
    9.7290    3.0680    0.1160 C   0  0  0  0  0  3  0  0  0  0  0  0
    9.7710    4.4560    0.2790 C   0  0  0  0  0  3  0  0  0  0  0  0
   10.9460    5.1540    0.0140 C   0  0  0  0  0  3  0  0  0  0  0  0
   12.0790    4.4670   -0.4130 C   0  0  0  0  0  3  0  0  0  0  0  0
   12.0370    3.0790   -0.5760 C   0  0  0  0  0  3  0  0  0  0  0  0
   11.0340   -3.7200   -1.6300 O   0  0  0  0  0  1  0  0  0  0  0  0
   11.7690   -2.6940   -1.8210 C   0  0  0  0  0  0  0  0  0  0  0  0
   12.8400   -2.6560   -2.4990 O   0  0  0  0  0  0  0  0  0  0  0  0
    9.0860   -2.6250    1.8670 S   0  0  0  0  0  0  0  0  0  0  0  0
   10.1860   -3.0020    2.7340 O   0  0  0  0  0  0  0  0  0  0  0  0
    8.3130   -1.4300    2.1730 O   0  0  0  0  0  0  0  0  0  0  0  0
    7.9300   -3.9990    1.8120 C   0  0  0  0  0  0  0  0  0  0  0  0
    6.7910   -3.9990    2.6010 C   0  0  0  0  0  3  0  0  0  0  0  0
    5.9040   -5.0610    2.4460 C   0  0  0  0  0  3  0  0  0  0  0  0
    6.1750   -6.0670    1.5070 C   0  0  0  0  0  0  0  0  0  0  0  0
    7.3540   -5.9730    0.7760 C   0  0  0  0  0  3  0  0  0  0  0  0
    8.2430   -4.9690    0.9130 N   0  0  0  0  0  0  0  0  0  0  0  0
    5.2650   -7.2380    1.3070 C   0  0  0  0  0  0  0  0  0  0  0  0
    5.5420   -7.9590    0.1860 F   0  0  0  0  0  0  0  0  0  0  0  0
    5.3260   -8.1220    2.3420 F   0  0  0  0  0  0  0  0  0  0  0  0
    3.9510   -6.8850    1.2060 F   0  0  0  0  0  0  0  0  0  0  0  0
  1 17  1  0  0  0  0
  2  1  1  0  0  0  0
  3  7  2  0  0  0  0
  4  3  1  0  0  0  0
  4  5  1  0  0  0  0
  5  8  1  0  0  0  0
  5  6  2  0  0  0  0
  7  6  1  0  0  0  0
  7  1  1  0  0  0  0
  8  9  1  0  0  0  0
  9 10  2  0  0  0  0
 11 10  1  0  0  0  0
 12 11  2  0  0  0  0
 13 12  1  0  0  0  0
 13  8  2  0  0  0  0
 15 14  1  0  0  0  0
 15  3  1  0  0  0  0
 16 15  2  0  0  0  0
 17 19  2  0  0  0  0
 17 18  2  0  0  0  0
 20 17  1  0  0  0  0
 20 21  1  0  0  0  0
 22 21  2  0  0  0  0
 23 22  1  0  0  0  0
 24 25  1  0  0  0  0
 24 23  2  0  0  0  0
 25 20  2  0  0  0  0
 26 23  1  0  0  0  0
 26 28  1  0  0  0  0
 27 26  1  0  0  0  0
 29 26  1  0  0  0  0
M  END
>  <minimizedAffinity>
-5.86778307

$$$$
