
 OpenBabel09122222393D

 29 31  0  0  0  0  0  0  0  0999 V2000
    9.5310   -1.8960   -0.6560 N   0  0  0  0  0  0  0  0  0  0  0  0
    8.4910   -1.8170   -0.7320 H   0  0  0  0  0  0  0  0  0  0  0  0
   11.0730   -0.1800   -1.5280 C   0  0  0  0  0  0  0  0  0  0  0  0
   11.6040    1.4060   -1.1890 S   0  0  0  0  0  0  0  0  0  0  0  0
   10.6030    1.5350    0.1970 C   0  0  0  0  0  0  0  0  0  0  0  0
    9.8990    0.3610    0.3970 C   0  0  0  0  0  3  0  0  0  0  0  0
   10.1420   -0.6240   -0.6070 C   0  0  0  0  0  0  0  0  0  0  0  0
   10.5930    2.7600    1.0110 C   0  0  0  0  0  0  0  0  0  0  0  0
   10.2280    4.0040    0.4710 C   0  0  0  0  0  3  0  0  0  0  0  0
   10.2060    5.1530    1.2680 C   0  0  0  0  0  3  0  0  0  0  0  0
   10.5440    5.0740    2.6160 C   0  0  0  0  0  3  0  0  0  0  0  0
   10.9040    3.8490    3.1690 C   0  0  0  0  0  3  0  0  0  0  0  0
   10.9270    2.7000    2.3730 C   0  0  0  0  0  3  0  0  0  0  0  0
   10.9410   -0.7510   -3.7980 O   0  0  0  0  0  0  0  0  0  0  0  0
   11.5330   -0.9840   -2.6920 C   0  0  0  0  0  0  0  0  0  0  0  0
   12.4680   -1.8190   -2.5040 O   0  0  0  0  0  1  0  0  0  0  0  0
    9.9980   -3.1790    0.3290 S   0  0  0  0  0  0  0  0  0  0  0  0
   11.1380   -3.8510   -0.2660 O   0  0  0  0  0  0  0  0  0  0  0  0
   10.0880   -2.7010    1.7010 O   0  0  0  0  0  0  0  0  0  0  0  0
    8.5950   -4.2980    0.2540 C   0  0  0  0  0  0  0  0  0  0  0  0
    8.1020   -4.7360   -0.9650 C   0  0  0  0  0  3  0  0  0  0  0  0
    7.0630   -5.6630   -0.9400 C   0  0  0  0  0  3  0  0  0  0  0  0
    6.5680   -6.1260    0.2880 C   0  0  0  0  0  0  0  0  0  0  0  0
    7.1300   -5.6110    1.4510 C   0  0  0  0  0  3  0  0  0  0  0  0
    8.1240   -4.7000    1.4630 N   0  0  0  0  0  0  0  0  0  0  0  0
    5.4450   -7.1110    0.3750 C   0  0  0  0  0  0  0  0  0  0  0  0
    5.6940   -8.1480    1.2210 F   0  0  0  0  0  0  0  0  0  0  0  0
    4.2900   -6.5390    0.8170 F   0  0  0  0  0  0  0  0  0  0  0  0
    5.1350   -7.6790   -0.8260 F   0  0  0  0  0  0  0  0  0  0  0  0
  1  7  1  0  0  0  0
  1 17  1  0  0  0  0
  2  1  1  0  0  0  0
  3  4  1  0  0  0  0
  3  7  2  0  0  0  0
  4  5  1  0  0  0  0
  5  6  2  0  0  0  0
  5  8  1  0  0  0  0
  7  6  1  0  0  0  0
  8 13  1  0  0  0  0
  9  8  2  0  0  0  0
  9 10  1  0  0  0  0
 10 11  2  0  0  0  0
 11 12  1  0  0  0  0
 13 12  2  0  0  0  0
 14 15  2  0  0  0  0
 15 16  1  0  0  0  0
 15  3  1  0  0  0  0
 17 19  2  0  0  0  0
 18 17  2  0  0  0  0
 20 17  1  0  0  0  0
 20 25  1  0  0  0  0
 21 22  1  0  0  0  0
 21 20  2  0  0  0  0
 22 23  2  0  0  0  0
 23 26  1  0  0  0  0
 23 24  1  0  0  0  0
 24 25  2  0  0  0  0
 26 28  1  0  0  0  0
 26 27  1  0  0  0  0
 29 26  1  0  0  0  0
M  END
>  <minimizedAffinity>
-7.08261061

$$$$
