
 OpenBabel09122222393D

 29 31  0  0  0  0  0  0  0  0999 V2000
   10.5500   -3.8850    0.5150 N   0  0  0  0  0  0  0  0  0  0  0  0
   11.0890   -3.2830    1.1770 H   0  0  0  0  0  0  0  0  0  0  0  0
    8.6460   -3.4850    2.0310 C   0  0  0  0  0  0  0  0  0  0  0  0
    7.1090   -4.1220    2.4110 S   0  0  0  0  0  0  0  0  0  0  0  0
    7.2460   -5.3710    1.2430 C   0  0  0  0  0  0  0  0  0  0  0  0
    8.4700   -5.3010    0.6010 C   0  0  0  0  0  3  0  0  0  0  0  0
    9.2730   -4.2010    1.0290 C   0  0  0  0  0  0  0  0  0  0  0  0
    6.1660   -6.3510    1.0530 C   0  0  0  0  0  0  0  0  0  0  0  0
    6.0200   -7.4630    1.8970 C   0  0  0  0  0  3  0  0  0  0  0  0
    4.9740   -8.3720    1.7110 C   0  0  0  0  0  3  0  0  0  0  0  0
    4.0570   -8.1800    0.6820 C   0  0  0  0  0  3  0  0  0  0  0  0
    4.1840   -7.0810   -0.1630 C   0  0  0  0  0  3  0  0  0  0  0  0
    5.2300   -6.1720    0.0230 C   0  0  0  0  0  3  0  0  0  0  0  0
   10.3370   -2.4680    3.2980 O   0  0  0  0  0  1  0  0  0  0  0  0
    9.2350   -2.2840    2.6810 C   0  0  0  0  0  0  0  0  0  0  0  0
    8.6160   -1.1830    2.5680 O   0  0  0  0  0  0  0  0  0  0  0  0
   10.8130   -3.4530   -1.0910 S   0  0  0  0  0  0  0  0  0  0  0  0
   12.0280   -4.0880   -1.5660 O   0  0  0  0  0  0  0  0  0  0  0  0
    9.5740   -3.6420   -1.8320 O   0  0  0  0  0  0  0  0  0  0  0  0
   11.1100   -1.6840   -1.0070 C   0  0  0  0  0  0  0  0  0  0  0  0
   12.1270   -1.1000   -1.7440 C   0  0  0  0  0  3  0  0  0  0  0  0
   12.2450    0.2870   -1.6870 C   0  0  0  0  0  3  0  0  0  0  0  0
   11.3440    1.0340   -0.9150 C   0  0  0  0  0  0  0  0  0  0  0  0
   10.3670    0.3440   -0.2060 C   0  0  0  0  0  3  0  0  0  0  0  0
   10.2360   -0.9980   -0.2240 N   0  0  0  0  0  0  0  0  0  0  0  0
   11.4310    2.5240   -0.8060 C   0  0  0  0  0  0  0  0  0  0  0  0
   10.2180    3.1360   -0.7120 F   0  0  0  0  0  0  0  0  0  0  0  0
   12.1330    2.9210    0.2930 F   0  0  0  0  0  0  0  0  0  0  0  0
   12.0580    3.1040   -1.8690 F   0  0  0  0  0  0  0  0  0  0  0  0
  1  7  1  0  0  0  0
  1  2  1  0  0  0  0
  3  4  1  0  0  0  0
  3 15  1  0  0  0  0
  5  4  1  0  0  0  0
  6  7  1  0  0  0  0
  6  5  2  0  0  0  0
  7  3  2  0  0  0  0
  8  5  1  0  0  0  0
  8  9  1  0  0  0  0
 10  9  2  0  0  0  0
 11 10  1  0  0  0  0
 12 13  1  0  0  0  0
 12 11  2  0  0  0  0
 13  8  2  0  0  0  0
 15 14  1  0  0  0  0
 16 15  2  0  0  0  0
 17 20  1  0  0  0  0
 17  1  1  0  0  0  0
 18 17  2  0  0  0  0
 19 17  2  0  0  0  0
 20 25  1  0  0  0  0
 21 22  1  0  0  0  0
 21 20  2  0  0  0  0
 22 23  2  0  0  0  0
 23 26  1  0  0  0  0
 23 24  1  0  0  0  0
 25 24  2  0  0  0  0
 26 27  1  0  0  0  0
 26 28  1  0  0  0  0
 29 26  1  0  0  0  0
M  END
>  <minimizedAffinity>
-5.44215679

$$$$
