
 OpenBabel09122220533D

 29 31  0  0  0  0  0  0  0  0999 V2000
    9.6560   -1.8400   -0.8570 N   0  0  0  0  0  0  0  0  0  0  0  0
    8.6130   -1.7990   -0.7950 H   0  0  0  0  0  0  0  0  0  0  0  0
   11.1430   -0.0380   -1.6450 C   0  0  0  0  0  0  0  0  0  0  0  0
   11.6300    1.5440   -1.2280 S   0  0  0  0  0  0  0  0  0  0  0  0
   10.6310    1.5730    0.1650 C   0  0  0  0  0  0  0  0  0  0  0  0
    9.9630    0.3710    0.3080 C   0  0  0  0  0  3  0  0  0  0  0  0
   10.2300   -0.5550   -0.7460 C   0  0  0  0  0  0  0  0  0  0  0  0
   10.5890    2.7550    1.0410 C   0  0  0  0  0  0  0  0  0  0  0  0
   10.8730    2.6680    2.4140 C   0  0  0  0  0  3  0  0  0  0  0  0
   10.8470    3.8060    3.2250 C   0  0  0  0  0  3  0  0  0  0  0  0
   10.5410    5.0480    2.6760 C   0  0  0  0  0  3  0  0  0  0  0  0
   10.2600    5.1540    1.3160 C   0  0  0  0  0  3  0  0  0  0  0  0
   10.2860    4.0160    0.5050 C   0  0  0  0  0  3  0  0  0  0  0  0
   12.7840   -1.2890   -2.7600 O   0  0  0  0  0  1  0  0  0  0  0  0
   11.6210   -0.7680   -2.8490 C   0  0  0  0  0  0  0  0  0  0  0  0
   10.8500   -0.8270   -3.8540 O   0  0  0  0  0  0  0  0  0  0  0  0
   10.2830   -3.1980   -0.0830 S   0  0  0  0  0  0  0  0  0  0  0  0
   11.2910   -3.8090   -0.9280 O   0  0  0  0  0  0  0  0  0  0  0  0
   10.6230   -2.8350    1.2850 O   0  0  0  0  0  0  0  0  0  0  0  0
    8.8800   -4.3170    0.0030 C   0  0  0  0  0  0  0  0  0  0  0  0
    8.3970   -4.7540    1.2250 C   0  0  0  0  0  3  0  0  0  0  0  0
    7.2590   -5.5580    1.2140 C   0  0  0  0  0  3  0  0  0  0  0  0
    6.6420   -5.8790   -0.0040 C   0  0  0  0  0  0  0  0  0  0  0  0
    7.2190   -5.3950   -1.1720 C   0  0  0  0  0  3  0  0  0  0  0  0
    8.3300   -4.6300   -1.1990 N   0  0  0  0  0  0  0  0  0  0  0  0
    5.4260   -6.7480   -0.0770 C   0  0  0  0  0  0  0  0  0  0  0  0
    5.5370   -7.7670   -0.9730 F   0  0  0  0  0  0  0  0  0  0  0  0
    5.1380   -7.3340    1.1190 F   0  0  0  0  0  0  0  0  0  0  0  0
    4.3000   -6.0650   -0.4300 F   0  0  0  0  0  0  0  0  0  0  0  0
  1  2  1  0  0  0  0
  1  7  1  0  0  0  0
  1 17  1  0  0  0  0
  3  4  1  0  0  0  0
  3  7  2  0  0  0  0
  4  5  1  0  0  0  0
  5  6  2  0  0  0  0
  5  8  1  0  0  0  0
  7  6  1  0  0  0  0
  8  9  1  0  0  0  0
  9 10  2  0  0  0  0
 11 10  1  0  0  0  0
 12 11  2  0  0  0  0
 13  8  2  0  0  0  0
 13 12  1  0  0  0  0
 15 14  1  0  0  0  0
 15  3  1  0  0  0  0
 16 15  2  0  0  0  0
 17 20  1  0  0  0  0
 17 19  2  0  0  0  0
 18 17  2  0  0  0  0
 20 21  1  0  0  0  0
 22 21  2  0  0  0  0
 23 22  1  0  0  0  0
 24 23  2  0  0  0  0
 25 24  1  0  0  0  0
 25 20  2  0  0  0  0
 26 23  1  0  0  0  0
 26 28  1  0  0  0  0
 27 26  1  0  0  0  0
 29 26  1  0  0  0  0
M  END
>  <minimizedAffinity>
-7.78629303

$$$$

 OpenBabel09122220533D

 29 31  0  0  0  0  0  0  0  0999 V2000
   10.0740   -2.4700   -1.0790 N   0  0  0  0  0  0  0  0  0  0  0  0
    9.0940   -2.3990   -1.4360 H   0  0  0  0  0  0  0  0  0  0  0  0
   11.9270   -1.0950   -1.9480 C   0  0  0  0  0  0  0  0  0  0  0  0
   12.4970    0.5140   -1.9230 S   0  0  0  0  0  0  0  0  0  0  0  0
   11.2010    1.0450   -0.9340 C   0  0  0  0  0  0  0  0  0  0  0  0
   10.3700   -0.0130   -0.6140 C   0  0  0  0  0  3  0  0  0  0  0  0
   10.7640   -1.2460   -1.2170 C   0  0  0  0  0  0  0  0  0  0  0  0
   11.0990    2.4510   -0.5110 C   0  0  0  0  0  0  0  0  0  0  0  0
    9.8970    2.9910   -0.0270 C   0  0  0  0  0  3  0  0  0  0  0  0
    9.8260    4.3240    0.3890 C   0  0  0  0  0  3  0  0  0  0  0  0
   10.9560    5.1350    0.3300 C   0  0  0  0  0  3  0  0  0  0  0  0
   12.1580    4.6150   -0.1440 C   0  0  0  0  0  3  0  0  0  0  0  0
   12.2280    3.2820   -0.5590 C   0  0  0  0  0  3  0  0  0  0  0  0
   12.8380   -3.2550   -2.0140 O   0  0  0  0  0  1  0  0  0  0  0  0
   12.5860   -2.2020   -2.6910 C   0  0  0  0  0  0  0  0  0  0  0  0
   12.8360   -2.0260   -3.9220 O   0  0  0  0  0  0  0  0  0  0  0  0
   10.1770   -3.4330    0.2990 S   0  0  0  0  0  0  0  0  0  0  0  0
   11.3360   -4.2990    0.1930 O   0  0  0  0  0  0  0  0  0  0  0  0
   10.0260   -2.5830    1.4710 O   0  0  0  0  0  0  0  0  0  0  0  0
    8.7070   -4.4610    0.2030 C   0  0  0  0  0  0  0  0  0  0  0  0
    8.0710   -4.8970    1.3540 C   0  0  0  0  0  3  0  0  0  0  0  0
    6.8940   -5.6250    1.1990 C   0  0  0  0  0  3  0  0  0  0  0  0
    6.3910   -5.8760   -0.0860 C   0  0  0  0  0  0  0  0  0  0  0  0
    7.1170   -5.4010   -1.1730 C   0  0  0  0  0  3  0  0  0  0  0  0
    8.2690   -4.7090   -1.0590 N   0  0  0  0  0  0  0  0  0  0  0  0
    5.1390   -6.6630   -0.3130 C   0  0  0  0  0  0  0  0  0  0  0  0
    5.2560   -7.6070   -1.2870 F   0  0  0  0  0  0  0  0  0  0  0  0
    4.7380   -7.3300    0.8050 F   0  0  0  0  0  0  0  0  0  0  0  0
    4.0760   -5.8880   -0.6760 F   0  0  0  0  0  0  0  0  0  0  0  0
  1 17  1  0  0  0  0
  2  1  1  0  0  0  0
  3  4  1  0  0  0  0
  3  7  2  0  0  0  0
  4  5  1  0  0  0  0
  5  6  2  0  0  0  0
  5  8  1  0  0  0  0
  7  1  1  0  0  0  0
  7  6  1  0  0  0  0
  8  9  1  0  0  0  0
  9 10  2  0  0  0  0
 11 10  1  0  0  0  0
 12 11  2  0  0  0  0
 13  8  2  0  0  0  0
 13 12  1  0  0  0  0
 15 14  1  0  0  0  0
 15  3  1  0  0  0  0
 16 15  2  0  0  0  0
 17 19  2  0  0  0  0
 18 17  2  0  0  0  0
 20 17  1  0  0  0  0
 20 21  1  0  0  0  0
 22 21  2  0  0  0  0
 23 22  1  0  0  0  0
 24 25  1  0  0  0  0
 24 23  2  0  0  0  0
 25 20  2  0  0  0  0
 26 23  1  0  0  0  0
 26 28  1  0  0  0  0
 27 26  1  0  0  0  0
 29 26  1  0  0  0  0
M  END
>  <minimizedAffinity>
-7.60003996

$$$$

 OpenBabel09122220533D

 29 31  0  0  0  0  0  0  0  0999 V2000
    9.5310   -1.8960   -0.6560 N   0  0  0  0  0  0  0  0  0  0  0  0
    8.4910   -1.8170   -0.7320 H   0  0  0  0  0  0  0  0  0  0  0  0
   11.0730   -0.1800   -1.5280 C   0  0  0  0  0  0  0  0  0  0  0  0
   11.6040    1.4060   -1.1890 S   0  0  0  0  0  0  0  0  0  0  0  0
   10.6030    1.5350    0.1970 C   0  0  0  0  0  0  0  0  0  0  0  0
    9.8990    0.3610    0.3970 C   0  0  0  0  0  3  0  0  0  0  0  0
   10.1420   -0.6240   -0.6070 C   0  0  0  0  0  0  0  0  0  0  0  0
   10.5930    2.7600    1.0110 C   0  0  0  0  0  0  0  0  0  0  0  0
   10.2280    4.0040    0.4710 C   0  0  0  0  0  3  0  0  0  0  0  0
   10.2060    5.1530    1.2680 C   0  0  0  0  0  3  0  0  0  0  0  0
   10.5440    5.0740    2.6160 C   0  0  0  0  0  3  0  0  0  0  0  0
   10.9040    3.8490    3.1690 C   0  0  0  0  0  3  0  0  0  0  0  0
   10.9270    2.7000    2.3730 C   0  0  0  0  0  3  0  0  0  0  0  0
   10.9410   -0.7510   -3.7980 O   0  0  0  0  0  0  0  0  0  0  0  0
   11.5330   -0.9840   -2.6920 C   0  0  0  0  0  0  0  0  0  0  0  0
   12.4680   -1.8190   -2.5040 O   0  0  0  0  0  1  0  0  0  0  0  0
    9.9980   -3.1790    0.3290 S   0  0  0  0  0  0  0  0  0  0  0  0
   11.1380   -3.8510   -0.2660 O   0  0  0  0  0  0  0  0  0  0  0  0
   10.0880   -2.7010    1.7010 O   0  0  0  0  0  0  0  0  0  0  0  0
    8.5950   -4.2980    0.2540 C   0  0  0  0  0  0  0  0  0  0  0  0
    8.1020   -4.7360   -0.9650 C   0  0  0  0  0  3  0  0  0  0  0  0
    7.0630   -5.6630   -0.9400 C   0  0  0  0  0  3  0  0  0  0  0  0
    6.5680   -6.1260    0.2880 C   0  0  0  0  0  0  0  0  0  0  0  0
    7.1300   -5.6110    1.4510 C   0  0  0  0  0  3  0  0  0  0  0  0
    8.1240   -4.7000    1.4630 N   0  0  0  0  0  0  0  0  0  0  0  0
    5.4450   -7.1110    0.3750 C   0  0  0  0  0  0  0  0  0  0  0  0
    5.6940   -8.1480    1.2210 F   0  0  0  0  0  0  0  0  0  0  0  0
    4.2900   -6.5390    0.8170 F   0  0  0  0  0  0  0  0  0  0  0  0
    5.1350   -7.6790   -0.8260 F   0  0  0  0  0  0  0  0  0  0  0  0
  1  7  1  0  0  0  0
  1 17  1  0  0  0  0
  2  1  1  0  0  0  0
  3  4  1  0  0  0  0
  3  7  2  0  0  0  0
  4  5  1  0  0  0  0
  5  6  2  0  0  0  0
  5  8  1  0  0  0  0
  7  6  1  0  0  0  0
  8 13  1  0  0  0  0
  9  8  2  0  0  0  0
  9 10  1  0  0  0  0
 10 11  2  0  0  0  0
 11 12  1  0  0  0  0
 13 12  2  0  0  0  0
 14 15  2  0  0  0  0
 15 16  1  0  0  0  0
 15  3  1  0  0  0  0
 17 19  2  0  0  0  0
 18 17  2  0  0  0  0
 20 17  1  0  0  0  0
 20 25  1  0  0  0  0
 21 22  1  0  0  0  0
 21 20  2  0  0  0  0
 22 23  2  0  0  0  0
 23 26  1  0  0  0  0
 23 24  1  0  0  0  0
 24 25  2  0  0  0  0
 26 28  1  0  0  0  0
 26 27  1  0  0  0  0
 29 26  1  0  0  0  0
M  END
>  <minimizedAffinity>
-7.08261061

$$$$

 OpenBabel09122220533D

 29 31  0  0  0  0  0  0  0  0999 V2000
    9.4680   -2.4680    0.0690 N   0  0  0  0  0  0  0  0  0  0  0  0
    8.6510   -2.6320   -0.5610 H   0  0  0  0  0  0  0  0  0  0  0  0
   11.2930   -1.4290   -1.2240 C   0  0  0  0  0  0  0  0  0  0  0  0
   11.9830    0.1030   -1.5300 S   0  0  0  0  0  0  0  0  0  0  0  0
   10.8710    0.9020   -0.4980 C   0  0  0  0  0  0  0  0  0  0  0  0
   10.0100   -0.0090    0.0860 C   0  0  0  0  0  3  0  0  0  0  0  0
   10.2260   -1.3530   -0.3480 C   0  0  0  0  0  0  0  0  0  0  0  0
   10.9330    2.3590   -0.3030 C   0  0  0  0  0  0  0  0  0  0  0  0
   12.1010    3.0910   -0.5700 C   0  0  0  0  0  3  0  0  0  0  0  0
   12.1330    4.4780   -0.3980 C   0  0  0  0  0  3  0  0  0  0  0  0
   10.9970    5.1540    0.0410 C   0  0  0  0  0  3  0  0  0  0  0  0
    9.8300    4.4440    0.3080 C   0  0  0  0  0  3  0  0  0  0  0  0
    9.7970    3.0570    0.1350 C   0  0  0  0  0  3  0  0  0  0  0  0
   12.7600   -2.5910   -2.6350 O   0  0  0  0  0  0  0  0  0  0  0  0
   11.7630   -2.6950   -1.8460 C   0  0  0  0  0  0  0  0  0  0  0  0
   11.1560   -3.7660   -1.5440 O   0  0  0  0  0  1  0  0  0  0  0  0
    9.0950   -2.7760    1.6820 S   0  0  0  0  0  0  0  0  0  0  0  0
   10.2730   -3.2850    2.3590 O   0  0  0  0  0  0  0  0  0  0  0  0
    8.4050   -1.6160    2.2280 O   0  0  0  0  0  0  0  0  0  0  0  0
    7.8930   -4.1070    1.5880 C   0  0  0  0  0  0  0  0  0  0  0  0
    8.0290   -5.1200    0.6530 C   0  0  0  0  0  3  0  0  0  0  0  0
    7.1000   -6.1580    0.6930 C   0  0  0  0  0  3  0  0  0  0  0  0
    6.0890   -6.1540    1.6640 C   0  0  0  0  0  0  0  0  0  0  0  0
    6.0390   -5.0800    2.5470 C   0  0  0  0  0  3  0  0  0  0  0  0
    6.9100   -4.0510    2.5250 N   0  0  0  0  0  0  0  0  0  0  0  0
    5.0570   -7.2340    1.7460 C   0  0  0  0  0  0  0  0  0  0  0  0
    5.5740   -8.4900    1.6610 F   0  0  0  0  0  0  0  0  0  0  0  0
    4.3630   -7.1970    2.9190 F   0  0  0  0  0  0  0  0  0  0  0  0
    4.1160   -7.1530    0.7630 F   0  0  0  0  0  0  0  0  0  0  0  0
  1 17  1  0  0  0  0
  2  1  1  0  0  0  0
  3  7  2  0  0  0  0
  4  3  1  0  0  0  0
  4  5  1  0  0  0  0
  5  8  1  0  0  0  0
  5  6  2  0  0  0  0
  7  1  1  0  0  0  0
  7  6  1  0  0  0  0
  8 13  1  0  0  0  0
  9 10  1  0  0  0  0
  9  8  2  0  0  0  0
 10 11  2  0  0  0  0
 11 12  1  0  0  0  0
 13 12  2  0  0  0  0
 14 15  2  0  0  0  0
 15 16  1  0  0  0  0
 15  3  1  0  0  0  0
 17 19  2  0  0  0  0
 17 18  2  0  0  0  0
 20 17  1  0  0  0  0
 20 25  1  0  0  0  0
 21 22  1  0  0  0  0
 21 20  2  0  0  0  0
 22 23  2  0  0  0  0
 23 26  1  0  0  0  0
 23 24  1  0  0  0  0
 25 24  2  0  0  0  0
 26 28  1  0  0  0  0
 27 26  1  0  0  0  0
 29 26  1  0  0  0  0
M  END
>  <minimizedAffinity>
-6.27130413

$$$$

 OpenBabel09122220533D

 29 31  0  0  0  0  0  0  0  0999 V2000
    8.6860   -5.1060    1.4040 N   0  0  0  0  0  0  0  0  0  0  0  0
    9.3290   -5.7130    1.9620 H   0  0  0  0  0  0  0  0  0  0  0  0
    7.0510   -5.7420   -0.3300 C   0  0  0  0  0  0  0  0  0  0  0  0
    5.6930   -6.7520   -0.5530 S   0  0  0  0  0  0  0  0  0  0  0  0
    5.7530   -7.3270    1.0620 C   0  0  0  0  0  0  0  0  0  0  0  0
    6.7870   -6.7230    1.7540 C   0  0  0  0  0  3  0  0  0  0  0  0
    7.5590   -5.8280    0.9520 C   0  0  0  0  0  0  0  0  0  0  0  0
    4.7700   -8.3050    1.5530 C   0  0  0  0  0  0  0  0  0  0  0  0
    5.0280   -9.1140    2.6710 C   0  0  0  0  0  3  0  0  0  0  0  0
    4.0720  -10.0230    3.1350 C   0  0  0  0  0  3  0  0  0  0  0  0
    2.8440  -10.1350    2.4890 C   0  0  0  0  0  3  0  0  0  0  0  0
    2.5690   -9.3380    1.3810 C   0  0  0  0  0  3  0  0  0  0  0  0
    3.5250   -8.4290    0.9170 C   0  0  0  0  0  3  0  0  0  0  0  0
    6.8080   -4.2300   -2.1060 O   0  0  0  0  0  0  0  0  0  0  0  0
    7.6400   -4.8890   -1.3970 C   0  0  0  0  0  0  0  0  0  0  0  0
    8.9020   -4.8710   -1.5140 O   0  0  0  0  0  1  0  0  0  0  0  0
    8.5890   -3.5450    2.0260 S   0  0  0  0  0  0  0  0  0  0  0  0
    7.2140   -3.0880    1.9640 O   0  0  0  0  0  0  0  0  0  0  0  0
    9.2960   -3.5080    3.2980 O   0  0  0  0  0  0  0  0  0  0  0  0
    9.5490   -2.5700    0.8630 C   0  0  0  0  0  0  0  0  0  0  0  0
   10.5290   -3.1610    0.0810 C   0  0  0  0  0  3  0  0  0  0  0  0
   11.1770   -2.3550   -0.8520 C   0  0  0  0  0  3  0  0  0  0  0  0
   10.8170   -1.0060   -0.9810 C   0  0  0  0  0  0  0  0  0  0  0  0
    9.8280   -0.5140   -0.1370 C   0  0  0  0  0  3  0  0  0  0  0  0
    9.1930   -1.2610    0.7890 N   0  0  0  0  0  0  0  0  0  0  0  0
   11.4870   -0.0910   -1.9560 C   0  0  0  0  0  0  0  0  0  0  0  0
   12.6660   -0.5740   -2.4370 F   0  0  0  0  0  0  0  0  0  0  0  0
   10.7130    0.1540   -3.0500 F   0  0  0  0  0  0  0  0  0  0  0  0
   11.7760    1.1350   -1.4320 F   0  0  0  0  0  0  0  0  0  0  0  0
  1  2  1  0  0  0  0
  1 17  1  0  0  0  0
  3  7  2  0  0  0  0
  4  3  1  0  0  0  0
  4  5  1  0  0  0  0
  5  8  1  0  0  0  0
  5  6  2  0  0  0  0
  7  1  1  0  0  0  0
  7  6  1  0  0  0  0
  8  9  1  0  0  0  0
  9 10  2  0  0  0  0
 11 10  1  0  0  0  0
 12 11  2  0  0  0  0
 13 12  1  0  0  0  0
 13  8  2  0  0  0  0
 14 15  2  0  0  0  0
 15  3  1  0  0  0  0
 16 15  1  0  0  0  0
 17 19  2  0  0  0  0
 18 17  2  0  0  0  0
 20 17  1  0  0  0  0
 21 20  2  0  0  0  0
 22 21  1  0  0  0  0
 23 22  2  0  0  0  0
 23 24  1  0  0  0  0
 24 25  2  0  0  0  0
 25 20  1  0  0  0  0
 26 29  1  0  0  0  0
 26 23  1  0  0  0  0
 27 26  1  0  0  0  0
 28 26  1  0  0  0  0
M  END
>  <minimizedAffinity>
-6.03227901

$$$$

 OpenBabel09122220533D

 29 31  0  0  0  0  0  0  0  0999 V2000
   10.7400   -2.9350    0.2630 N   0  0  0  0  0  0  0  0  0  0  0  0
   11.3370   -2.4350    0.9600 H   0  0  0  0  0  0  0  0  0  0  0  0
    9.1130   -3.0730    2.1120 C   0  0  0  0  0  0  0  0  0  0  0  0
    7.6660   -3.8740    2.5350 S   0  0  0  0  0  0  0  0  0  0  0  0
    7.6190   -4.7450    1.0590 C   0  0  0  0  0  0  0  0  0  0  0  0
    8.7180   -4.4350    0.2780 C   0  0  0  0  0  3  0  0  0  0  0  0
    9.5700   -3.4510    0.8630 C   0  0  0  0  0  0  0  0  0  0  0  0
    6.5310   -5.6940    0.7750 C   0  0  0  0  0  0  0  0  0  0  0  0
    5.6230   -6.0950    1.7670 C   0  0  0  0  0  3  0  0  0  0  0  0
    4.5840   -6.9830    1.4720 C   0  0  0  0  0  3  0  0  0  0  0  0
    4.4350   -7.4790    0.1800 C   0  0  0  0  0  3  0  0  0  0  0  0
    5.3250   -7.0900   -0.8180 C   0  0  0  0  0  3  0  0  0  0  0  0
    6.3640   -6.2020   -0.5220 C   0  0  0  0  0  3  0  0  0  0  0  0
   10.9940   -2.3320    3.2990 O   0  0  0  0  0  1  0  0  0  0  0  0
    9.7900   -2.0640    2.9700 C   0  0  0  0  0  0  0  0  0  0  0  0
    9.1380   -1.0280    3.2970 O   0  0  0  0  0  0  0  0  0  0  0  0
   10.7450   -2.1740   -1.2380 S   0  0  0  0  0  0  0  0  0  0  0  0
   11.9740   -2.4980   -1.9370 O   0  0  0  0  0  0  0  0  0  0  0  0
    9.4670   -2.4250   -1.8890 O   0  0  0  0  0  0  0  0  0  0  0  0
   10.7890   -0.4270   -0.8230 C   0  0  0  0  0  0  0  0  0  0  0  0
   11.5770    0.4540   -1.5450 C   0  0  0  0  0  3  0  0  0  0  0  0
   11.4980    1.8040   -1.2130 C   0  0  0  0  0  3  0  0  0  0  0  0
   10.6330    2.2240   -0.1920 C   0  0  0  0  0  0  0  0  0  0  0  0
    9.8960    1.2530    0.4760 C   0  0  0  0  0  3  0  0  0  0  0  0
    9.9610   -0.0640    0.1920 N   0  0  0  0  0  0  0  0  0  0  0  0
   10.5170    3.6590    0.2150 C   0  0  0  0  0  0  0  0  0  0  0  0
   11.5140    4.4470   -0.2730 F   0  0  0  0  0  0  0  0  0  0  0  0
    9.3530    4.2240   -0.2110 F   0  0  0  0  0  0  0  0  0  0  0  0
   10.5340    3.8360    1.5680 F   0  0  0  0  0  0  0  0  0  0  0  0
  1  7  1  0  0  0  0
  1  2  1  0  0  0  0
  3  4  1  0  0  0  0
  3 15  1  0  0  0  0
  5  4  1  0  0  0  0
  6  7  1  0  0  0  0
  6  5  2  0  0  0  0
  7  3  2  0  0  0  0
  8  5  1  0  0  0  0
  8  9  1  0  0  0  0
 10  9  2  0  0  0  0
 11 10  1  0  0  0  0
 12 13  1  0  0  0  0
 12 11  2  0  0  0  0
 13  8  2  0  0  0  0
 15 16  2  0  0  0  0
 15 14  1  0  0  0  0
 17 20  1  0  0  0  0
 17  1  1  0  0  0  0
 18 17  2  0  0  0  0
 19 17  2  0  0  0  0
 20 25  1  0  0  0  0
 21 22  1  0  0  0  0
 21 20  2  0  0  0  0
 22 23  2  0  0  0  0
 23 26  1  0  0  0  0
 23 24  1  0  0  0  0
 25 24  2  0  0  0  0
 26 29  1  0  0  0  0
 27 26  1  0  0  0  0
 28 26  1  0  0  0  0
M  END
>  <minimizedAffinity>
-5.8729949

$$$$

 OpenBabel09122220533D

 29 31  0  0  0  0  0  0  0  0999 V2000
    9.6400   -2.5140    0.2810 N   0  0  0  0  0  0  0  0  0  0  0  0
    8.9430   -2.8810   -0.4060 H   0  0  0  0  0  0  0  0  0  0  0  0
   11.3010   -1.4330   -1.1870 C   0  0  0  0  0  0  0  0  0  0  0  0
   11.8960    0.1170   -1.5840 S   0  0  0  0  0  0  0  0  0  0  0  0
   10.8440    0.8960   -0.4760 C   0  0  0  0  0  0  0  0  0  0  0  0
   10.0760   -0.0350    0.1980 C   0  0  0  0  0  3  0  0  0  0  0  0
   10.3110   -1.3790   -0.2240 C   0  0  0  0  0  0  0  0  0  0  0  0
   10.8610    2.3590   -0.3180 C   0  0  0  0  0  0  0  0  0  0  0  0
    9.7290    3.0680    0.1160 C   0  0  0  0  0  3  0  0  0  0  0  0
    9.7710    4.4560    0.2790 C   0  0  0  0  0  3  0  0  0  0  0  0
   10.9460    5.1540    0.0140 C   0  0  0  0  0  3  0  0  0  0  0  0
   12.0790    4.4670   -0.4130 C   0  0  0  0  0  3  0  0  0  0  0  0
   12.0370    3.0790   -0.5760 C   0  0  0  0  0  3  0  0  0  0  0  0
   11.0340   -3.7200   -1.6300 O   0  0  0  0  0  1  0  0  0  0  0  0
   11.7690   -2.6940   -1.8210 C   0  0  0  0  0  0  0  0  0  0  0  0
   12.8400   -2.6560   -2.4990 O   0  0  0  0  0  0  0  0  0  0  0  0
    9.0860   -2.6250    1.8670 S   0  0  0  0  0  0  0  0  0  0  0  0
   10.1860   -3.0020    2.7340 O   0  0  0  0  0  0  0  0  0  0  0  0
    8.3130   -1.4300    2.1730 O   0  0  0  0  0  0  0  0  0  0  0  0
    7.9300   -3.9990    1.8120 C   0  0  0  0  0  0  0  0  0  0  0  0
    6.7910   -3.9990    2.6010 C   0  0  0  0  0  3  0  0  0  0  0  0
    5.9040   -5.0610    2.4460 C   0  0  0  0  0  3  0  0  0  0  0  0
    6.1750   -6.0670    1.5070 C   0  0  0  0  0  0  0  0  0  0  0  0
    7.3540   -5.9730    0.7760 C   0  0  0  0  0  3  0  0  0  0  0  0
    8.2430   -4.9690    0.9130 N   0  0  0  0  0  0  0  0  0  0  0  0
    5.2650   -7.2380    1.3070 C   0  0  0  0  0  0  0  0  0  0  0  0
    5.5420   -7.9590    0.1860 F   0  0  0  0  0  0  0  0  0  0  0  0
    5.3260   -8.1220    2.3420 F   0  0  0  0  0  0  0  0  0  0  0  0
    3.9510   -6.8850    1.2060 F   0  0  0  0  0  0  0  0  0  0  0  0
  1 17  1  0  0  0  0
  2  1  1  0  0  0  0
  3  7  2  0  0  0  0
  4  3  1  0  0  0  0
  4  5  1  0  0  0  0
  5  8  1  0  0  0  0
  5  6  2  0  0  0  0
  7  6  1  0  0  0  0
  7  1  1  0  0  0  0
  8  9  1  0  0  0  0
  9 10  2  0  0  0  0
 11 10  1  0  0  0  0
 12 11  2  0  0  0  0
 13 12  1  0  0  0  0
 13  8  2  0  0  0  0
 15 14  1  0  0  0  0
 15  3  1  0  0  0  0
 16 15  2  0  0  0  0
 17 19  2  0  0  0  0
 17 18  2  0  0  0  0
 20 17  1  0  0  0  0
 20 21  1  0  0  0  0
 22 21  2  0  0  0  0
 23 22  1  0  0  0  0
 24 25  1  0  0  0  0
 24 23  2  0  0  0  0
 25 20  2  0  0  0  0
 26 23  1  0  0  0  0
 26 28  1  0  0  0  0
 27 26  1  0  0  0  0
 29 26  1  0  0  0  0
M  END
>  <minimizedAffinity>
-5.86778307

$$$$

 OpenBabel09122220533D

 29 31  0  0  0  0  0  0  0  0999 V2000
   10.5500   -3.8850    0.5150 N   0  0  0  0  0  0  0  0  0  0  0  0
   11.0890   -3.2830    1.1770 H   0  0  0  0  0  0  0  0  0  0  0  0
    8.6460   -3.4850    2.0310 C   0  0  0  0  0  0  0  0  0  0  0  0
    7.1090   -4.1220    2.4110 S   0  0  0  0  0  0  0  0  0  0  0  0
    7.2460   -5.3710    1.2430 C   0  0  0  0  0  0  0  0  0  0  0  0
    8.4700   -5.3010    0.6010 C   0  0  0  0  0  3  0  0  0  0  0  0
    9.2730   -4.2010    1.0290 C   0  0  0  0  0  0  0  0  0  0  0  0
    6.1660   -6.3510    1.0530 C   0  0  0  0  0  0  0  0  0  0  0  0
    6.0200   -7.4630    1.8970 C   0  0  0  0  0  3  0  0  0  0  0  0
    4.9740   -8.3720    1.7110 C   0  0  0  0  0  3  0  0  0  0  0  0
    4.0570   -8.1800    0.6820 C   0  0  0  0  0  3  0  0  0  0  0  0
    4.1840   -7.0810   -0.1630 C   0  0  0  0  0  3  0  0  0  0  0  0
    5.2300   -6.1720    0.0230 C   0  0  0  0  0  3  0  0  0  0  0  0
   10.3370   -2.4680    3.2980 O   0  0  0  0  0  1  0  0  0  0  0  0
    9.2350   -2.2840    2.6810 C   0  0  0  0  0  0  0  0  0  0  0  0
    8.6160   -1.1830    2.5680 O   0  0  0  0  0  0  0  0  0  0  0  0
   10.8130   -3.4530   -1.0910 S   0  0  0  0  0  0  0  0  0  0  0  0
   12.0280   -4.0880   -1.5660 O   0  0  0  0  0  0  0  0  0  0  0  0
    9.5740   -3.6420   -1.8320 O   0  0  0  0  0  0  0  0  0  0  0  0
   11.1100   -1.6840   -1.0070 C   0  0  0  0  0  0  0  0  0  0  0  0
   12.1270   -1.1000   -1.7440 C   0  0  0  0  0  3  0  0  0  0  0  0
   12.2450    0.2870   -1.6870 C   0  0  0  0  0  3  0  0  0  0  0  0
   11.3440    1.0340   -0.9150 C   0  0  0  0  0  0  0  0  0  0  0  0
   10.3670    0.3440   -0.2060 C   0  0  0  0  0  3  0  0  0  0  0  0
   10.2360   -0.9980   -0.2240 N   0  0  0  0  0  0  0  0  0  0  0  0
   11.4310    2.5240   -0.8060 C   0  0  0  0  0  0  0  0  0  0  0  0
   10.2180    3.1360   -0.7120 F   0  0  0  0  0  0  0  0  0  0  0  0
   12.1330    2.9210    0.2930 F   0  0  0  0  0  0  0  0  0  0  0  0
   12.0580    3.1040   -1.8690 F   0  0  0  0  0  0  0  0  0  0  0  0
  1  7  1  0  0  0  0
  1  2  1  0  0  0  0
  3  4  1  0  0  0  0
  3 15  1  0  0  0  0
  5  4  1  0  0  0  0
  6  7  1  0  0  0  0
  6  5  2  0  0  0  0
  7  3  2  0  0  0  0
  8  5  1  0  0  0  0
  8  9  1  0  0  0  0
 10  9  2  0  0  0  0
 11 10  1  0  0  0  0
 12 13  1  0  0  0  0
 12 11  2  0  0  0  0
 13  8  2  0  0  0  0
 15 14  1  0  0  0  0
 16 15  2  0  0  0  0
 17 20  1  0  0  0  0
 17  1  1  0  0  0  0
 18 17  2  0  0  0  0
 19 17  2  0  0  0  0
 20 25  1  0  0  0  0
 21 22  1  0  0  0  0
 21 20  2  0  0  0  0
 22 23  2  0  0  0  0
 23 26  1  0  0  0  0
 23 24  1  0  0  0  0
 25 24  2  0  0  0  0
 26 27  1  0  0  0  0
 26 28  1  0  0  0  0
 29 26  1  0  0  0  0
M  END
>  <minimizedAffinity>
-5.44215679

$$$$
