
 OpenBabel09132204463D

 22 23  0  0  0  0  0  0  0  0999 V2000
   10.9440   -2.8420    0.3170 C   0  0  0  0  0  0  0  0  0  0  0  0
   12.1420   -3.4730    0.0190 C   0  0  0  0  0  3  0  0  0  0  0  0
   12.7230   -2.7850   -1.0600 C   0  0  0  0  0  0  0  0  0  0  0  0
   14.4770   -3.2580   -1.9440 I   0  0  0  0  0  0  0  0  0  0  0  0
   11.8960   -1.7510   -1.4160 C   0  0  0  0  0  3  0  0  0  0  0  0
   10.8110   -1.7730   -0.5560 N   0  0  0  0  0  0  0  0  0  0  0  0
   10.2810   -2.6790    2.5540 C   0  0  0  0  0  2  0  0  0  0  0  0
    9.9480   -3.1030    1.3150 C   0  0  0  0  0  0  0  0  0  0  0  0
    8.9420   -3.6500    0.7940 O   0  0  0  0  0  0  0  0  0  0  0  0
    9.4900   -2.7100    3.8320 C   0  0  0  0  0  0  0  0  0  0  0  0
    8.5310   -3.4380    4.0770 O   0  0  0  0  0  0  0  0  0  0  0  0
    9.2510   -0.7040    5.2090 O   0  0  0  0  0  0  0  0  0  0  0  0
    9.9440   -1.7540    4.9760 C   0  0  0  0  0  0  0  0  0  0  0  0
   10.9930   -2.0940    5.6300 O   0  0  0  0  0  1  0  0  0  0  0  0
    9.6730   -0.8630   -0.6390 C   0  0  0  0  0  2  0  0  0  0  0  0
    9.9090    0.4210    0.1320 C   0  0  0  0  0  0  0  0  0  0  0  0
   10.6510    1.4730   -0.4310 C   0  0  0  0  0  3  0  0  0  0  0  0
   10.8660    2.6470    0.2920 C   0  0  0  0  0  3  0  0  0  0  0  0
   10.3410    2.7740    1.5730 C   0  0  0  0  0  0  0  0  0  0  0  0
   10.5540    3.9060    2.2590 F   0  0  0  0  0  0  0  0  0  0  0  0
    9.6040    1.7470    2.1470 C   0  0  0  0  0  3  0  0  0  0  0  0
    9.3880    0.5720    1.4280 C   0  0  0  0  0  3  0  0  0  0  0  0
  1  8  1  0  0  0  0
  2  1  2  0  0  0  0
  3  2  1  0  0  0  0
  4  3  1  0  0  0  0
  5  3  2  0  0  0  0
  5  6  1  0  0  0  0
  6  1  1  0  0  0  0
  7 10  1  0  0  0  0
  8  7  1  0  0  0  0
  9  8  2  0  0  0  0
 10 11  2  0  0  0  0
 10 13  1  0  0  0  0
 13 12  2  0  0  0  0
 13 14  1  0  0  0  0
 15  6  1  0  0  0  0
 15 16  1  0  0  0  0
 16 22  1  0  0  0  0
 17 16  2  0  0  0  0
 17 18  1  0  0  0  0
 18 19  2  0  0  0  0
 19 21  1  0  0  0  0
 19 20  1  0  0  0  0
 22 21  2  0  0  0  0
M  END
>  <minimizedAffinity>
-6.09081602

$$$$
