
 OpenBabel09132204463D

 22 23  0  0  0  0  0  0  0  0999 V2000
   12.0240    3.4070    1.5580 C   0  0  0  0  0  0  0  0  0  0  0  0
   12.1220    3.2830    2.9360 C   0  0  0  0  0  3  0  0  0  0  0  0
   11.0070    2.5470    3.3730 C   0  0  0  0  0  0  0  0  0  0  0  0
   10.6000    2.0620    5.2910 I   0  0  0  0  0  0  0  0  0  0  0  0
   10.2410    2.2260    2.2810 C   0  0  0  0  0  3  0  0  0  0  0  0
   10.8770    2.7370    1.1630 N   0  0  0  0  0  0  0  0  0  0  0  0
   12.4650    5.2750    0.2210 C   0  0  0  0  0  2  0  0  0  0  0  0
   12.8740    4.0420    0.5930 C   0  0  0  0  0  0  0  0  0  0  0  0
   13.8600    3.3060    0.3290 O   0  0  0  0  0  0  0  0  0  0  0  0
   13.1100    6.2690   -0.7030 C   0  0  0  0  0  0  0  0  0  0  0  0
   14.2970    6.3060   -1.0200 O   0  0  0  0  0  0  0  0  0  0  0  0
   12.3390    7.6130   -2.5950 O   0  0  0  0  0  0  0  0  0  0  0  0
   12.1860    7.3430   -1.3540 C   0  0  0  0  0  0  0  0  0  0  0  0
   11.3080    7.8860   -0.5940 O   0  0  0  0  0  1  0  0  0  0  0  0
   10.3510    2.6550   -0.1960 C   0  0  0  0  0  2  0  0  0  0  0  0
   10.9060    1.4640   -0.9540 C   0  0  0  0  0  0  0  0  0  0  0  0
   11.9600    1.6200   -1.8680 C   0  0  0  0  0  3  0  0  0  0  0  0
   12.4580    0.5170   -2.5630 C   0  0  0  0  0  3  0  0  0  0  0  0
   11.9060   -0.7400   -2.3450 C   0  0  0  0  0  0  0  0  0  0  0  0
   12.3910   -1.7950   -3.0180 F   0  0  0  0  0  0  0  0  0  0  0  0
   10.8640   -0.9170   -1.4450 C   0  0  0  0  0  3  0  0  0  0  0  0
   10.3640    0.1840   -0.7500 C   0  0  0  0  0  3  0  0  0  0  0  0
  1  2  2  0  0  0  0
  2  3  1  0  0  0  0
  3  4  1  0  0  0  0
  5  3  2  0  0  0  0
  6  1  1  0  0  0  0
  6  5  1  0  0  0  0
  7  8  1  0  0  0  0
  8  1  1  0  0  0  0
  9  8  2  0  0  0  0
 10  7  1  0  0  0  0
 11 10  2  0  0  0  0
 12 13  2  0  0  0  0
 13 10  1  0  0  0  0
 13 14  1  0  0  0  0
 15  6  1  0  0  0  0
 16 22  1  0  0  0  0
 16 15  1  0  0  0  0
 17 16  2  0  0  0  0
 18 19  2  0  0  0  0
 18 17  1  0  0  0  0
 19 21  1  0  0  0  0
 20 19  1  0  0  0  0
 21 22  2  0  0  0  0
M  END
>  <minimizedAffinity>
-6.03723717

$$$$
