
 OpenBabel09132204463D

 22 23  0  0  0  0  0  0  0  0999 V2000
   11.6800    4.2990    1.2390 C   0  0  0  0  0  0  0  0  0  0  0  0
   12.0930    4.2870    2.5630 C   0  0  0  0  0  3  0  0  0  0  0  0
   11.5410    3.1430    3.1660 C   0  0  0  0  0  0  0  0  0  0  0  0
   11.7850    2.6020    5.0970 I   0  0  0  0  0  0  0  0  0  0  0  0
   10.8050    2.4670    2.2270 C   0  0  0  0  0  3  0  0  0  0  0  0
   10.9070    3.1670    1.0370 N   0  0  0  0  0  0  0  0  0  0  0  0
   10.9640    6.1230   -0.0390 C   0  0  0  0  0  2  0  0  0  0  0  0
   11.9410    5.2120    0.1650 C   0  0  0  0  0  0  0  0  0  0  0  0
   13.0710    4.9800   -0.3390 O   0  0  0  0  0  0  0  0  0  0  0  0
   10.8980    7.2680   -1.0090 C   0  0  0  0  0  0  0  0  0  0  0  0
   11.8530    7.8920   -1.4660 O   0  0  0  0  0  0  0  0  0  0  0  0
    9.3590    8.0600   -2.7370 O   0  0  0  0  0  0  0  0  0  0  0  0
    9.4870    7.6910   -1.5180 C   0  0  0  0  0  0  0  0  0  0  0  0
    8.5260    7.6300   -0.6730 O   0  0  0  0  0  1  0  0  0  0  0  0
   10.2180    2.8010   -0.1970 C   0  0  0  0  0  2  0  0  0  0  0  0
   10.9180    1.6730   -0.9310 C   0  0  0  0  0  0  0  0  0  0  0  0
   12.1090    1.9040   -1.6370 C   0  0  0  0  0  3  0  0  0  0  0  0
   12.7400    0.8580   -2.3130 C   0  0  0  0  0  3  0  0  0  0  0  0
   12.1840   -0.4160   -2.2820 C   0  0  0  0  0  0  0  0  0  0  0  0
   12.7980   -1.4150   -2.9350 F   0  0  0  0  0  0  0  0  0  0  0  0
   11.0080   -0.6660   -1.5890 C   0  0  0  0  0  3  0  0  0  0  0  0
   10.3750    0.3770   -0.9140 C   0  0  0  0  0  3  0  0  0  0  0  0
  1  2  2  0  0  0  0
  2  3  1  0  0  0  0
  3  4  1  0  0  0  0
  5  3  2  0  0  0  0
  6  1  1  0  0  0  0
  6  5  1  0  0  0  0
  7  8  1  0  0  0  0
  8  1  1  0  0  0  0
  9  8  2  0  0  0  0
 10  7  1  0  0  0  0
 11 10  2  0  0  0  0
 12 13  2  0  0  0  0
 13 10  1  0  0  0  0
 13 14  1  0  0  0  0
 15  6  1  0  0  0  0
 16 22  1  0  0  0  0
 16 15  1  0  0  0  0
 17 16  2  0  0  0  0
 18 19  2  0  0  0  0
 18 17  1  0  0  0  0
 19 21  1  0  0  0  0
 20 19  1  0  0  0  0
 21 22  2  0  0  0  0
M  END
>  <minimizedAffinity>
-6.11442518

$$$$
