
 OpenBabel09122223313D

 22 23  0  0  0  0  0  0  0  0999 V2000
    9.7700   -1.8590    0.9140 C   0  0  0  0  0  0  0  0  0  0  0  0
   10.0900   -0.7310    0.1730 C   0  0  0  0  0  3  0  0  0  0  0  0
   10.5510   -1.1670   -1.0810 C   0  0  0  0  0  0  0  0  0  0  0  0
   11.1780    0.0310   -2.5810 I   0  0  0  0  0  0  0  0  0  0  0  0
   10.5120   -2.5380   -1.1080 C   0  0  0  0  0  3  0  0  0  0  0  0
   10.0120   -2.9630    0.1110 N   0  0  0  0  0  0  0  0  0  0  0  0
   10.1940   -2.2620    3.1790 C   0  0  0  0  0  2  0  0  0  0  0  0
    9.2520   -2.0160    2.2420 C   0  0  0  0  0  0  0  0  0  0  0  0
    8.0050   -1.8460    2.2460 O   0  0  0  0  0  0  0  0  0  0  0  0
   10.0590   -2.4190    4.6670 C   0  0  0  0  0  0  0  0  0  0  0  0
   10.9800   -2.5290    5.4740 O   0  0  0  0  0  0  0  0  0  0  0  0
    7.8580   -3.4150    5.0450 O   0  0  0  0  0  0  0  0  0  0  0  0
    8.6170   -2.4070    5.2580 C   0  0  0  0  0  0  0  0  0  0  0  0
    8.2830   -1.3780    5.9440 O   0  0  0  0  0  1  0  0  0  0  0  0
    9.8660   -4.3620    0.5010 C   0  0  0  0  0  2  0  0  0  0  0  0
    8.4630   -4.8810    0.2530 C   0  0  0  0  0  0  0  0  0  0  0  0
    7.9430   -4.9590   -1.0490 C   0  0  0  0  0  3  0  0  0  0  0  0
    6.6480   -5.4330   -1.2620 C   0  0  0  0  0  3  0  0  0  0  0  0
    5.8730   -5.8310   -0.1780 C   0  0  0  0  0  0  0  0  0  0  0  0
    4.6290   -6.2850   -0.3930 F   0  0  0  0  0  0  0  0  0  0  0  0
    6.3680   -5.7630    1.1170 C   0  0  0  0  0  3  0  0  0  0  0  0
    7.6620   -5.2890    1.3330 C   0  0  0  0  0  3  0  0  0  0  0  0
  1  8  1  0  0  0  0
  2  1  2  0  0  0  0
  3  2  1  0  0  0  0
  4  3  1  0  0  0  0
  5  3  2  0  0  0  0
  5  6  1  0  0  0  0
  6 15  1  0  0  0  0
  6  1  1  0  0  0  0
  7 10  1  0  0  0  0
  8  9  2  0  0  0  0
  8  7  1  0  0  0  0
 10 13  1  0  0  0  0
 10 11  2  0  0  0  0
 12 13  2  0  0  0  0
 13 14  1  0  0  0  0
 16 15  1  0  0  0  0
 16 22  1  0  0  0  0
 17 16  2  0  0  0  0
 18 17  1  0  0  0  0
 18 19  2  0  0  0  0
 19 21  1  0  0  0  0
 20 19  1  0  0  0  0
 21 22  2  0  0  0  0
M  END
>  <minimizedAffinity>
-6.64776516

$$$$

 OpenBabel09122223313D

 22 23  0  0  0  0  0  0  0  0999 V2000
    9.8780   -2.4000    2.4450 C   0  0  0  0  0  0  0  0  0  0  0  0
   10.4020   -2.7060    3.6930 C   0  0  0  0  0  3  0  0  0  0  0  0
   10.1110   -1.6290    4.5470 C   0  0  0  0  0  0  0  0  0  0  0  0
   10.6400   -1.4990    6.4920 I   0  0  0  0  0  0  0  0  0  0  0  0
    9.4210   -0.6810    3.8360 C   0  0  0  0  0  3  0  0  0  0  0  0
    9.2590   -1.1640    2.5490 N   0  0  0  0  0  0  0  0  0  0  0  0
    8.7630   -3.8790    1.0160 C   0  0  0  0  0  2  0  0  0  0  0  0
    9.8680   -3.1260    1.2090 C   0  0  0  0  0  0  0  0  0  0  0  0
   10.9030   -2.8630    0.5420 O   0  0  0  0  0  0  0  0  0  0  0  0
    8.3580   -4.7170   -0.1640 C   0  0  0  0  0  0  0  0  0  0  0  0
    8.8810   -4.7110   -1.2760 O   0  0  0  0  0  0  0  0  0  0  0  0
    7.1420   -6.4040    1.1220 O   0  0  0  0  0  1  0  0  0  0  0  0
    7.1820   -5.7190    0.0420 C   0  0  0  0  0  0  0  0  0  0  0  0
    6.3090   -5.7840   -0.8930 O   0  0  0  0  0  0  0  0  0  0  0  0
    8.6200   -0.4260    1.4640 C   0  0  0  0  0  2  0  0  0  0  0  0
    9.5570    0.5830    0.8280 C   0  0  0  0  0  0  0  0  0  0  0  0
    9.8530    1.7960    1.4700 C   0  0  0  0  0  3  0  0  0  0  0  0
   10.7130    2.7180    0.8710 C   0  0  0  0  0  3  0  0  0  0  0  0
   11.2780    2.4300   -0.3660 C   0  0  0  0  0  0  0  0  0  0  0  0
   12.1020    3.3220   -0.9340 F   0  0  0  0  0  0  0  0  0  0  0  0
   11.0000    1.2350   -1.0180 C   0  0  0  0  0  3  0  0  0  0  0  0
   10.1400    0.3130   -0.4220 C   0  0  0  0  0  3  0  0  0  0  0  0
  1  6  1  0  0  0  0
  1  2  2  0  0  0  0
  2  3  1  0  0  0  0
  3  4  1  0  0  0  0
  5  3  2  0  0  0  0
  6  5  1  0  0  0  0
  7  8  1  0  0  0  0
  8  1  1  0  0  0  0
  9  8  2  0  0  0  0
 10 13  1  0  0  0  0
 10  7  1  0  0  0  0
 11 10  2  0  0  0  0
 13 12  1  0  0  0  0
 14 13  2  0  0  0  0
 15  6  1  0  0  0  0
 16 15  1  0  0  0  0
 16 17  1  0  0  0  0
 18 17  2  0  0  0  0
 19 18  1  0  0  0  0
 20 19  1  0  0  0  0
 21 22  1  0  0  0  0
 21 19  2  0  0  0  0
 22 16  2  0  0  0  0
M  END
>  <minimizedAffinity>
-6.33469868

$$$$

 OpenBabel09122223313D

 22 23  0  0  0  0  0  0  0  0999 V2000
    8.7520   -3.2960    1.9870 C   0  0  0  0  0  0  0  0  0  0  0  0
    7.5940   -4.0310    1.7800 C   0  0  0  0  0  3  0  0  0  0  0  0
    7.8000   -4.8320    0.6440 C   0  0  0  0  0  0  0  0  0  0  0  0
    6.4520   -6.1080   -0.1530 I   0  0  0  0  0  0  0  0  0  0  0  0
    9.0630   -4.5920    0.1640 C   0  0  0  0  0  3  0  0  0  0  0  0
    9.6550   -3.6630    1.0020 N   0  0  0  0  0  0  0  0  0  0  0  0
    9.5620   -2.8770    4.1410 C   0  0  0  0  0  2  0  0  0  0  0  0
    9.1070   -2.3350    2.9900 C   0  0  0  0  0  0  0  0  0  0  0  0
    8.9490   -1.1670    2.5490 O   0  0  0  0  0  0  0  0  0  0  0  0
   10.0860   -2.2120    5.3820 C   0  0  0  0  0  0  0  0  0  0  0  0
   11.1090   -2.5120    5.9930 O   0  0  0  0  0  0  0  0  0  0  0  0
    9.7810    0.1710    5.8370 O   0  0  0  0  0  0  0  0  0  0  0  0
    9.2780   -1.0010    5.9380 C   0  0  0  0  0  0  0  0  0  0  0  0
    8.1350   -1.2590    6.4580 O   0  0  0  0  0  1  0  0  0  0  0  0
   10.9880   -3.1020    0.8020 C   0  0  0  0  0  2  0  0  0  0  0  0
   11.0450   -2.1780   -0.4000 C   0  0  0  0  0  0  0  0  0  0  0  0
   11.8990   -2.4540   -1.4800 C   0  0  0  0  0  3  0  0  0  0  0  0
   11.9450   -1.5930   -2.5780 C   0  0  0  0  0  3  0  0  0  0  0  0
   11.1410   -0.4590   -2.5980 C   0  0  0  0  0  0  0  0  0  0  0  0
   11.1930    0.3630   -3.6570 F   0  0  0  0  0  0  0  0  0  0  0  0
   10.2890   -0.1690   -1.5410 C   0  0  0  0  0  3  0  0  0  0  0  0
   10.2410   -1.0270   -0.4430 C   0  0  0  0  0  3  0  0  0  0  0  0
  1  8  1  0  0  0  0
  2  1  2  0  0  0  0
  3  2  1  0  0  0  0
  4  3  1  0  0  0  0
  5  3  2  0  0  0  0
  5  6  1  0  0  0  0
  6  1  1  0  0  0  0
  7 10  1  0  0  0  0
  8  7  1  0  0  0  0
  9  8  2  0  0  0  0
 10 13  1  0  0  0  0
 10 11  2  0  0  0  0
 12 13  2  0  0  0  0
 13 14  1  0  0  0  0
 15  6  1  0  0  0  0
 16 15  1  0  0  0  0
 17 16  2  0  0  0  0
 18 17  1  0  0  0  0
 19 18  2  0  0  0  0
 19 21  1  0  0  0  0
 20 19  1  0  0  0  0
 21 22  2  0  0  0  0
 22 16  1  0  0  0  0
M  END
>  <minimizedAffinity>
-6.25580263

$$$$

 OpenBabel09122223313D

 22 23  0  0  0  0  0  0  0  0999 V2000
    9.8510   -2.2860    2.3940 C   0  0  0  0  0  0  0  0  0  0  0  0
   10.3550   -2.7550    3.5980 C   0  0  0  0  0  3  0  0  0  0  0  0
   10.0720   -1.7880    4.5780 C   0  0  0  0  0  0  0  0  0  0  0  0
   10.5800   -1.9130    6.5290 I   0  0  0  0  0  0  0  0  0  0  0  0
    9.4060   -0.7460    3.9840 C   0  0  0  0  0  3  0  0  0  0  0  0
    9.2520   -1.0620    2.6450 N   0  0  0  0  0  0  0  0  0  0  0  0
   10.9050   -2.4980    0.3160 C   0  0  0  0  0  2  0  0  0  0  0  0
    9.8440   -2.8510    1.0760 C   0  0  0  0  0  0  0  0  0  0  0  0
    8.8440   -3.6010    0.9280 O   0  0  0  0  0  0  0  0  0  0  0  0
   11.2840   -2.9280   -1.0730 C   0  0  0  0  0  0  0  0  0  0  0  0
   11.1580   -4.0550   -1.5460 O   0  0  0  0  0  0  0  0  0  0  0  0
   13.1290   -1.6490   -2.0430 O   0  0  0  0  0  1  0  0  0  0  0  0
   11.8640   -1.8380   -2.0240 C   0  0  0  0  0  0  0  0  0  0  0  0
   11.0230   -1.1980   -2.7490 O   0  0  0  0  0  0  0  0  0  0  0  0
    8.6390   -0.1820    1.6550 C   0  0  0  0  0  2  0  0  0  0  0  0
    9.5870    0.9070    1.1920 C   0  0  0  0  0  0  0  0  0  0  0  0
    9.9500    1.9590    2.0500 C   0  0  0  0  0  3  0  0  0  0  0  0
   10.8190    2.9580    1.6090 C   0  0  0  0  0  3  0  0  0  0  0  0
   11.3250    2.9090    0.3150 C   0  0  0  0  0  0  0  0  0  0  0  0
   12.1590    3.8740   -0.1000 F   0  0  0  0  0  0  0  0  0  0  0  0
   10.9800    1.8780   -0.5490 C   0  0  0  0  0  3  0  0  0  0  0  0
   10.1110    0.8780   -0.1110 C   0  0  0  0  0  3  0  0  0  0  0  0
  1  6  1  0  0  0  0
  1  2  2  0  0  0  0
  2  3  1  0  0  0  0
  3  4  1  0  0  0  0
  5  3  2  0  0  0  0
  6  5  1  0  0  0  0
  7  8  1  0  0  0  0
  8  1  1  0  0  0  0
  9  8  2  0  0  0  0
 10  7  1  0  0  0  0
 11 10  2  0  0  0  0
 12 13  1  0  0  0  0
 13 10  1  0  0  0  0
 14 13  2  0  0  0  0
 15  6  1  0  0  0  0
 16 15  1  0  0  0  0
 16 17  1  0  0  0  0
 18 17  2  0  0  0  0
 19 18  1  0  0  0  0
 20 19  1  0  0  0  0
 21 22  1  0  0  0  0
 21 19  2  0  0  0  0
 22 16  2  0  0  0  0
M  END
>  <minimizedAffinity>
-6.12582588

$$$$

 OpenBabel09122223313D

 22 23  0  0  0  0  0  0  0  0999 V2000
   11.6800    4.2990    1.2390 C   0  0  0  0  0  0  0  0  0  0  0  0
   12.0930    4.2870    2.5630 C   0  0  0  0  0  3  0  0  0  0  0  0
   11.5410    3.1430    3.1660 C   0  0  0  0  0  0  0  0  0  0  0  0
   11.7850    2.6020    5.0970 I   0  0  0  0  0  0  0  0  0  0  0  0
   10.8050    2.4670    2.2270 C   0  0  0  0  0  3  0  0  0  0  0  0
   10.9070    3.1670    1.0370 N   0  0  0  0  0  0  0  0  0  0  0  0
   10.9640    6.1230   -0.0390 C   0  0  0  0  0  2  0  0  0  0  0  0
   11.9410    5.2120    0.1650 C   0  0  0  0  0  0  0  0  0  0  0  0
   13.0710    4.9800   -0.3390 O   0  0  0  0  0  0  0  0  0  0  0  0
   10.8980    7.2680   -1.0090 C   0  0  0  0  0  0  0  0  0  0  0  0
   11.8530    7.8920   -1.4660 O   0  0  0  0  0  0  0  0  0  0  0  0
    9.3590    8.0600   -2.7370 O   0  0  0  0  0  0  0  0  0  0  0  0
    9.4870    7.6910   -1.5180 C   0  0  0  0  0  0  0  0  0  0  0  0
    8.5260    7.6300   -0.6730 O   0  0  0  0  0  1  0  0  0  0  0  0
   10.2180    2.8010   -0.1970 C   0  0  0  0  0  2  0  0  0  0  0  0
   10.9180    1.6730   -0.9310 C   0  0  0  0  0  0  0  0  0  0  0  0
   12.1090    1.9040   -1.6370 C   0  0  0  0  0  3  0  0  0  0  0  0
   12.7400    0.8580   -2.3130 C   0  0  0  0  0  3  0  0  0  0  0  0
   12.1840   -0.4160   -2.2820 C   0  0  0  0  0  0  0  0  0  0  0  0
   12.7980   -1.4150   -2.9350 F   0  0  0  0  0  0  0  0  0  0  0  0
   11.0080   -0.6660   -1.5890 C   0  0  0  0  0  3  0  0  0  0  0  0
   10.3750    0.3770   -0.9140 C   0  0  0  0  0  3  0  0  0  0  0  0
  1  2  2  0  0  0  0
  2  3  1  0  0  0  0
  3  4  1  0  0  0  0
  5  3  2  0  0  0  0
  6  1  1  0  0  0  0
  6  5  1  0  0  0  0
  7  8  1  0  0  0  0
  8  1  1  0  0  0  0
  9  8  2  0  0  0  0
 10  7  1  0  0  0  0
 11 10  2  0  0  0  0
 12 13  2  0  0  0  0
 13 10  1  0  0  0  0
 13 14  1  0  0  0  0
 15  6  1  0  0  0  0
 16 22  1  0  0  0  0
 16 15  1  0  0  0  0
 17 16  2  0  0  0  0
 18 19  2  0  0  0  0
 18 17  1  0  0  0  0
 19 21  1  0  0  0  0
 20 19  1  0  0  0  0
 21 22  2  0  0  0  0
M  END
>  <minimizedAffinity>
-6.11442518

$$$$

 OpenBabel09122223313D

 22 23  0  0  0  0  0  0  0  0999 V2000
   10.9440   -2.8420    0.3170 C   0  0  0  0  0  0  0  0  0  0  0  0
   12.1420   -3.4730    0.0190 C   0  0  0  0  0  3  0  0  0  0  0  0
   12.7230   -2.7850   -1.0600 C   0  0  0  0  0  0  0  0  0  0  0  0
   14.4770   -3.2580   -1.9440 I   0  0  0  0  0  0  0  0  0  0  0  0
   11.8960   -1.7510   -1.4160 C   0  0  0  0  0  3  0  0  0  0  0  0
   10.8110   -1.7730   -0.5560 N   0  0  0  0  0  0  0  0  0  0  0  0
   10.2810   -2.6790    2.5540 C   0  0  0  0  0  2  0  0  0  0  0  0
    9.9480   -3.1030    1.3150 C   0  0  0  0  0  0  0  0  0  0  0  0
    8.9420   -3.6500    0.7940 O   0  0  0  0  0  0  0  0  0  0  0  0
    9.4900   -2.7100    3.8320 C   0  0  0  0  0  0  0  0  0  0  0  0
    8.5310   -3.4380    4.0770 O   0  0  0  0  0  0  0  0  0  0  0  0
    9.2510   -0.7040    5.2090 O   0  0  0  0  0  0  0  0  0  0  0  0
    9.9440   -1.7540    4.9760 C   0  0  0  0  0  0  0  0  0  0  0  0
   10.9930   -2.0940    5.6300 O   0  0  0  0  0  1  0  0  0  0  0  0
    9.6730   -0.8630   -0.6390 C   0  0  0  0  0  2  0  0  0  0  0  0
    9.9090    0.4210    0.1320 C   0  0  0  0  0  0  0  0  0  0  0  0
   10.6510    1.4730   -0.4310 C   0  0  0  0  0  3  0  0  0  0  0  0
   10.8660    2.6470    0.2920 C   0  0  0  0  0  3  0  0  0  0  0  0
   10.3410    2.7740    1.5730 C   0  0  0  0  0  0  0  0  0  0  0  0
   10.5540    3.9060    2.2590 F   0  0  0  0  0  0  0  0  0  0  0  0
    9.6040    1.7470    2.1470 C   0  0  0  0  0  3  0  0  0  0  0  0
    9.3880    0.5720    1.4280 C   0  0  0  0  0  3  0  0  0  0  0  0
  1  8  1  0  0  0  0
  2  1  2  0  0  0  0
  3  2  1  0  0  0  0
  4  3  1  0  0  0  0
  5  3  2  0  0  0  0
  5  6  1  0  0  0  0
  6  1  1  0  0  0  0
  7 10  1  0  0  0  0
  8  7  1  0  0  0  0
  9  8  2  0  0  0  0
 10 11  2  0  0  0  0
 10 13  1  0  0  0  0
 13 12  2  0  0  0  0
 13 14  1  0  0  0  0
 15  6  1  0  0  0  0
 15 16  1  0  0  0  0
 16 22  1  0  0  0  0
 17 16  2  0  0  0  0
 17 18  1  0  0  0  0
 18 19  2  0  0  0  0
 19 21  1  0  0  0  0
 19 20  1  0  0  0  0
 22 21  2  0  0  0  0
M  END
>  <minimizedAffinity>
-6.09081602

$$$$

 OpenBabel09122223313D

 22 23  0  0  0  0  0  0  0  0999 V2000
    9.2790   -3.2930    1.6580 C   0  0  0  0  0  0  0  0  0  0  0  0
    8.0450   -3.9180    1.5630 C   0  0  0  0  0  3  0  0  0  0  0  0
    8.0590   -4.7050    0.3980 C   0  0  0  0  0  0  0  0  0  0  0  0
    6.5260   -5.8370   -0.2710 I   0  0  0  0  0  0  0  0  0  0  0  0
    9.2810   -4.5650   -0.2080 C   0  0  0  0  0  3  0  0  0  0  0  0
   10.0390   -3.7130    0.5770 N   0  0  0  0  0  0  0  0  0  0  0  0
    9.3450   -1.1320    2.5500 C   0  0  0  0  0  2  0  0  0  0  0  0
    9.8230   -2.3930    2.6330 C   0  0  0  0  0  0  0  0  0  0  0  0
   10.6180   -3.0030    3.3940 O   0  0  0  0  0  0  0  0  0  0  0  0
    9.6150    0.0630    3.4190 C   0  0  0  0  0  0  0  0  0  0  0  0
    9.8070    0.0530    4.6330 O   0  0  0  0  0  0  0  0  0  0  0  0
    9.6770    1.4970    1.4390 O   0  0  0  0  0  0  0  0  0  0  0  0
    9.6940    1.4530    2.7180 C   0  0  0  0  0  0  0  0  0  0  0  0
    9.7580    2.4810    3.4800 O   0  0  0  0  0  1  0  0  0  0  0  0
   11.3890   -3.2660    0.2450 C   0  0  0  0  0  2  0  0  0  0  0  0
   11.3860   -2.1580   -0.7890 C   0  0  0  0  0  0  0  0  0  0  0  0
   10.4230   -1.1360   -0.7480 C   0  0  0  0  0  3  0  0  0  0  0  0
   10.4280   -0.1250   -1.7100 C   0  0  0  0  0  3  0  0  0  0  0  0
   11.3930   -0.1320   -2.7110 C   0  0  0  0  0  0  0  0  0  0  0  0
   11.3890    0.8440   -3.6320 F   0  0  0  0  0  0  0  0  0  0  0  0
   12.3550   -1.1320   -2.7700 C   0  0  0  0  0  3  0  0  0  0  0  0
   12.3520   -2.1440   -1.8100 C   0  0  0  0  0  3  0  0  0  0  0  0
  1  8  1  0  0  0  0
  2  1  2  0  0  0  0
  3  2  1  0  0  0  0
  4  3  1  0  0  0  0
  5  3  2  0  0  0  0
  5  6  1  0  0  0  0
  6  1  1  0  0  0  0
  7  8  1  0  0  0  0
  7 10  1  0  0  0  0
  8  9  2  0  0  0  0
 10 11  2  0  0  0  0
 12 13  2  0  0  0  0
 13 10  1  0  0  0  0
 13 14  1  0  0  0  0
 15  6  1  0  0  0  0
 16 17  1  0  0  0  0
 16 15  1  0  0  0  0
 18 17  2  0  0  0  0
 19 18  1  0  0  0  0
 20 19  1  0  0  0  0
 21 19  2  0  0  0  0
 21 22  1  0  0  0  0
 22 16  2  0  0  0  0
M  END
>  <minimizedAffinity>
-6.08554125

$$$$

 OpenBabel09122223313D

 22 23  0  0  0  0  0  0  0  0999 V2000
   12.0240    3.4070    1.5580 C   0  0  0  0  0  0  0  0  0  0  0  0
   12.1220    3.2830    2.9360 C   0  0  0  0  0  3  0  0  0  0  0  0
   11.0070    2.5470    3.3730 C   0  0  0  0  0  0  0  0  0  0  0  0
   10.6000    2.0620    5.2910 I   0  0  0  0  0  0  0  0  0  0  0  0
   10.2410    2.2260    2.2810 C   0  0  0  0  0  3  0  0  0  0  0  0
   10.8770    2.7370    1.1630 N   0  0  0  0  0  0  0  0  0  0  0  0
   12.4650    5.2750    0.2210 C   0  0  0  0  0  2  0  0  0  0  0  0
   12.8740    4.0420    0.5930 C   0  0  0  0  0  0  0  0  0  0  0  0
   13.8600    3.3060    0.3290 O   0  0  0  0  0  0  0  0  0  0  0  0
   13.1100    6.2690   -0.7030 C   0  0  0  0  0  0  0  0  0  0  0  0
   14.2970    6.3060   -1.0200 O   0  0  0  0  0  0  0  0  0  0  0  0
   12.3390    7.6130   -2.5950 O   0  0  0  0  0  0  0  0  0  0  0  0
   12.1860    7.3430   -1.3540 C   0  0  0  0  0  0  0  0  0  0  0  0
   11.3080    7.8860   -0.5940 O   0  0  0  0  0  1  0  0  0  0  0  0
   10.3510    2.6550   -0.1960 C   0  0  0  0  0  2  0  0  0  0  0  0
   10.9060    1.4640   -0.9540 C   0  0  0  0  0  0  0  0  0  0  0  0
   11.9600    1.6200   -1.8680 C   0  0  0  0  0  3  0  0  0  0  0  0
   12.4580    0.5170   -2.5630 C   0  0  0  0  0  3  0  0  0  0  0  0
   11.9060   -0.7400   -2.3450 C   0  0  0  0  0  0  0  0  0  0  0  0
   12.3910   -1.7950   -3.0180 F   0  0  0  0  0  0  0  0  0  0  0  0
   10.8640   -0.9170   -1.4450 C   0  0  0  0  0  3  0  0  0  0  0  0
   10.3640    0.1840   -0.7500 C   0  0  0  0  0  3  0  0  0  0  0  0
  1  2  2  0  0  0  0
  2  3  1  0  0  0  0
  3  4  1  0  0  0  0
  5  3  2  0  0  0  0
  6  1  1  0  0  0  0
  6  5  1  0  0  0  0
  7  8  1  0  0  0  0
  8  1  1  0  0  0  0
  9  8  2  0  0  0  0
 10  7  1  0  0  0  0
 11 10  2  0  0  0  0
 12 13  2  0  0  0  0
 13 10  1  0  0  0  0
 13 14  1  0  0  0  0
 15  6  1  0  0  0  0
 16 22  1  0  0  0  0
 16 15  1  0  0  0  0
 17 16  2  0  0  0  0
 18 19  2  0  0  0  0
 18 17  1  0  0  0  0
 19 21  1  0  0  0  0
 20 19  1  0  0  0  0
 21 22  2  0  0  0  0
M  END
>  <minimizedAffinity>
-6.03723717

$$$$

 OpenBabel09122223313D

 22 23  0  0  0  0  0  0  0  0999 V2000
    8.4400   -2.8650    3.4400 C   0  0  0  0  0  0  0  0  0  0  0  0
    8.8940   -2.7750    4.7470 C   0  0  0  0  0  3  0  0  0  0  0  0
    9.7720   -1.6790    4.8140 C   0  0  0  0  0  0  0  0  0  0  0  0
   10.7580   -1.0650    6.4660 I   0  0  0  0  0  0  0  0  0  0  0  0
    9.8530   -1.1080    3.5690 C   0  0  0  0  0  3  0  0  0  0  0  0
    9.0180   -1.8250    2.7290 N   0  0  0  0  0  0  0  0  0  0  0  0
    8.0420   -4.4030    1.7230 C   0  0  0  0  0  2  0  0  0  0  0  0
    7.5310   -3.7740    2.8040 C   0  0  0  0  0  0  0  0  0  0  0  0
    6.4420   -3.8130    3.4350 O   0  0  0  0  0  0  0  0  0  0  0  0
    7.4350   -5.4590    0.8430 C   0  0  0  0  0  0  0  0  0  0  0  0
    6.8100   -6.4490    1.2180 O   0  0  0  0  0  0  0  0  0  0  0  0
    8.6310   -4.7070   -1.1530 O   0  0  0  0  0  1  0  0  0  0  0  0
    7.5770   -5.2720   -0.6970 C   0  0  0  0  0  0  0  0  0  0  0  0
    6.6190   -5.7170   -1.4240 O   0  0  0  0  0  0  0  0  0  0  0  0
    8.8630   -1.5650    1.3010 C   0  0  0  0  0  2  0  0  0  0  0  0
   10.0700   -2.0210    0.5030 C   0  0  0  0  0  0  0  0  0  0  0  0
   10.8870   -3.0650    0.9660 C   0  0  0  0  0  3  0  0  0  0  0  0
   11.9980   -3.4710    0.2240 C   0  0  0  0  0  3  0  0  0  0  0  0
   12.2930   -2.8350   -0.9770 C   0  0  0  0  0  0  0  0  0  0  0  0
   13.3640   -3.2320   -1.6820 F   0  0  0  0  0  0  0  0  0  0  0  0
   11.4980   -1.8010   -1.4530 C   0  0  0  0  0  3  0  0  0  0  0  0
   10.3880   -1.3940   -0.7140 C   0  0  0  0  0  3  0  0  0  0  0  0
  1  2  2  0  0  0  0
  2  3  1  0  0  0  0
  3  4  1  0  0  0  0
  5  3  2  0  0  0  0
  6  1  1  0  0  0  0
  6  5  1  0  0  0  0
  7  8  1  0  0  0  0
  8  9  2  0  0  0  0
  8  1  1  0  0  0  0
 10 11  2  0  0  0  0
 10  7  1  0  0  0  0
 12 13  1  0  0  0  0
 13 10  1  0  0  0  0
 14 13  2  0  0  0  0
 15  6  1  0  0  0  0
 16 17  1  0  0  0  0
 16 15  1  0  0  0  0
 18 17  2  0  0  0  0
 19 18  1  0  0  0  0
 20 19  1  0  0  0  0
 21 19  2  0  0  0  0
 21 22  1  0  0  0  0
 22 16  2  0  0  0  0
M  END
>  <minimizedAffinity>
-6.0069766

$$$$

 OpenBabel09122223313D

 22 23  0  0  0  0  0  0  0  0999 V2000
   11.5070    2.9190    1.3190 C   0  0  0  0  0  0  0  0  0  0  0  0
   12.4990    3.4170    2.1500 C   0  0  0  0  0  3  0  0  0  0  0  0
   12.1060    3.1610    3.4750 C   0  0  0  0  0  0  0  0  0  0  0  0
   13.1480    3.6740    5.1270 I   0  0  0  0  0  0  0  0  0  0  0  0
   10.8950    2.5180    3.4550 C   0  0  0  0  0  3  0  0  0  0  0  0
   10.5360    2.3500    2.1290 N   0  0  0  0  0  0  0  0  0  0  0  0
   12.1770    1.9890   -0.7200 C   0  0  0  0  0  2  0  0  0  0  0  0
   11.3800    2.8930   -0.1090 C   0  0  0  0  0  0  0  0  0  0  0  0
   10.5040    3.7150   -0.4840 O   0  0  0  0  0  0  0  0  0  0  0  0
   12.2840    1.6210   -2.1730 C   0  0  0  0  0  0  0  0  0  0  0  0
   12.6530    2.3570   -3.0850 O   0  0  0  0  0  0  0  0  0  0  0  0
   10.7990   -0.0720   -3.1280 O   0  0  0  0  0  0  0  0  0  0  0  0
   11.9270    0.1560   -2.5670 C   0  0  0  0  0  0  0  0  0  0  0  0
   12.8050   -0.7410   -2.3110 O   0  0  0  0  0  1  0  0  0  0  0  0
    9.2810    1.7530    1.6820 C   0  0  0  0  0  2  0  0  0  0  0  0
    9.3960    0.2530    1.4930 C   0  0  0  0  0  0  0  0  0  0  0  0
    9.1890   -0.6260    2.5690 C   0  0  0  0  0  3  0  0  0  0  0  0
    9.3040   -2.0050    2.3830 C   0  0  0  0  0  3  0  0  0  0  0  0
    9.6240   -2.5060    1.1270 C   0  0  0  0  0  0  0  0  0  0  0  0
    9.7330   -3.8320    0.9590 F   0  0  0  0  0  0  0  0  0  0  0  0
    9.8330   -1.6550    0.0500 C   0  0  0  0  0  3  0  0  0  0  0  0
    9.7190   -0.2770    0.2330 C   0  0  0  0  0  3  0  0  0  0  0  0
  1  6  1  0  0  0  0
  1  2  2  0  0  0  0
  2  3  1  0  0  0  0
  3  4  1  0  0  0  0
  5  3  2  0  0  0  0
  6  5  1  0  0  0  0
  7  8  1  0  0  0  0
  8  1  1  0  0  0  0
  9  8  2  0  0  0  0
 10  7  1  0  0  0  0
 11 10  2  0  0  0  0
 12 13  2  0  0  0  0
 13 14  1  0  0  0  0
 13 10  1  0  0  0  0
 15  6  1  0  0  0  0
 16 15  1  0  0  0  0
 16 17  1  0  0  0  0
 18 17  2  0  0  0  0
 19 18  1  0  0  0  0
 20 19  1  0  0  0  0
 21 22  1  0  0  0  0
 21 19  2  0  0  0  0
 22 16  2  0  0  0  0
M  END
>  <minimizedAffinity>
-5.96442604

$$$$
