
 OpenBabel09132204463D

 22 23  0  0  0  0  0  0  0  0999 V2000
    9.7700   -1.8590    0.9140 C   0  0  0  0  0  0  0  0  0  0  0  0
   10.0900   -0.7310    0.1730 C   0  0  0  0  0  3  0  0  0  0  0  0
   10.5510   -1.1670   -1.0810 C   0  0  0  0  0  0  0  0  0  0  0  0
   11.1780    0.0310   -2.5810 I   0  0  0  0  0  0  0  0  0  0  0  0
   10.5120   -2.5380   -1.1080 C   0  0  0  0  0  3  0  0  0  0  0  0
   10.0120   -2.9630    0.1110 N   0  0  0  0  0  0  0  0  0  0  0  0
   10.1940   -2.2620    3.1790 C   0  0  0  0  0  2  0  0  0  0  0  0
    9.2520   -2.0160    2.2420 C   0  0  0  0  0  0  0  0  0  0  0  0
    8.0050   -1.8460    2.2460 O   0  0  0  0  0  0  0  0  0  0  0  0
   10.0590   -2.4190    4.6670 C   0  0  0  0  0  0  0  0  0  0  0  0
   10.9800   -2.5290    5.4740 O   0  0  0  0  0  0  0  0  0  0  0  0
    7.8580   -3.4150    5.0450 O   0  0  0  0  0  0  0  0  0  0  0  0
    8.6170   -2.4070    5.2580 C   0  0  0  0  0  0  0  0  0  0  0  0
    8.2830   -1.3780    5.9440 O   0  0  0  0  0  1  0  0  0  0  0  0
    9.8660   -4.3620    0.5010 C   0  0  0  0  0  2  0  0  0  0  0  0
    8.4630   -4.8810    0.2530 C   0  0  0  0  0  0  0  0  0  0  0  0
    7.9430   -4.9590   -1.0490 C   0  0  0  0  0  3  0  0  0  0  0  0
    6.6480   -5.4330   -1.2620 C   0  0  0  0  0  3  0  0  0  0  0  0
    5.8730   -5.8310   -0.1780 C   0  0  0  0  0  0  0  0  0  0  0  0
    4.6290   -6.2850   -0.3930 F   0  0  0  0  0  0  0  0  0  0  0  0
    6.3680   -5.7630    1.1170 C   0  0  0  0  0  3  0  0  0  0  0  0
    7.6620   -5.2890    1.3330 C   0  0  0  0  0  3  0  0  0  0  0  0
  1  8  1  0  0  0  0
  2  1  2  0  0  0  0
  3  2  1  0  0  0  0
  4  3  1  0  0  0  0
  5  3  2  0  0  0  0
  5  6  1  0  0  0  0
  6 15  1  0  0  0  0
  6  1  1  0  0  0  0
  7 10  1  0  0  0  0
  8  9  2  0  0  0  0
  8  7  1  0  0  0  0
 10 13  1  0  0  0  0
 10 11  2  0  0  0  0
 12 13  2  0  0  0  0
 13 14  1  0  0  0  0
 16 15  1  0  0  0  0
 16 22  1  0  0  0  0
 17 16  2  0  0  0  0
 18 17  1  0  0  0  0
 18 19  2  0  0  0  0
 19 21  1  0  0  0  0
 20 19  1  0  0  0  0
 21 22  2  0  0  0  0
M  END
>  <minimizedAffinity>
-6.64776516

$$$$
