
 OpenBabel09132204463D

 22 23  0  0  0  0  0  0  0  0999 V2000
    8.7520   -3.2960    1.9870 C   0  0  0  0  0  0  0  0  0  0  0  0
    7.5940   -4.0310    1.7800 C   0  0  0  0  0  3  0  0  0  0  0  0
    7.8000   -4.8320    0.6440 C   0  0  0  0  0  0  0  0  0  0  0  0
    6.4520   -6.1080   -0.1530 I   0  0  0  0  0  0  0  0  0  0  0  0
    9.0630   -4.5920    0.1640 C   0  0  0  0  0  3  0  0  0  0  0  0
    9.6550   -3.6630    1.0020 N   0  0  0  0  0  0  0  0  0  0  0  0
    9.5620   -2.8770    4.1410 C   0  0  0  0  0  2  0  0  0  0  0  0
    9.1070   -2.3350    2.9900 C   0  0  0  0  0  0  0  0  0  0  0  0
    8.9490   -1.1670    2.5490 O   0  0  0  0  0  0  0  0  0  0  0  0
   10.0860   -2.2120    5.3820 C   0  0  0  0  0  0  0  0  0  0  0  0
   11.1090   -2.5120    5.9930 O   0  0  0  0  0  0  0  0  0  0  0  0
    9.7810    0.1710    5.8370 O   0  0  0  0  0  0  0  0  0  0  0  0
    9.2780   -1.0010    5.9380 C   0  0  0  0  0  0  0  0  0  0  0  0
    8.1350   -1.2590    6.4580 O   0  0  0  0  0  1  0  0  0  0  0  0
   10.9880   -3.1020    0.8020 C   0  0  0  0  0  2  0  0  0  0  0  0
   11.0450   -2.1780   -0.4000 C   0  0  0  0  0  0  0  0  0  0  0  0
   11.8990   -2.4540   -1.4800 C   0  0  0  0  0  3  0  0  0  0  0  0
   11.9450   -1.5930   -2.5780 C   0  0  0  0  0  3  0  0  0  0  0  0
   11.1410   -0.4590   -2.5980 C   0  0  0  0  0  0  0  0  0  0  0  0
   11.1930    0.3630   -3.6570 F   0  0  0  0  0  0  0  0  0  0  0  0
   10.2890   -0.1690   -1.5410 C   0  0  0  0  0  3  0  0  0  0  0  0
   10.2410   -1.0270   -0.4430 C   0  0  0  0  0  3  0  0  0  0  0  0
  1  8  1  0  0  0  0
  2  1  2  0  0  0  0
  3  2  1  0  0  0  0
  4  3  1  0  0  0  0
  5  3  2  0  0  0  0
  5  6  1  0  0  0  0
  6  1  1  0  0  0  0
  7 10  1  0  0  0  0
  8  7  1  0  0  0  0
  9  8  2  0  0  0  0
 10 13  1  0  0  0  0
 10 11  2  0  0  0  0
 12 13  2  0  0  0  0
 13 14  1  0  0  0  0
 15  6  1  0  0  0  0
 16 15  1  0  0  0  0
 17 16  2  0  0  0  0
 18 17  1  0  0  0  0
 19 18  2  0  0  0  0
 19 21  1  0  0  0  0
 20 19  1  0  0  0  0
 21 22  2  0  0  0  0
 22 16  1  0  0  0  0
M  END
>  <minimizedAffinity>
-6.25580263

$$$$
