
 OpenBabel09132204463D

 22 23  0  0  0  0  0  0  0  0999 V2000
    9.8510   -2.2860    2.3940 C   0  0  0  0  0  0  0  0  0  0  0  0
   10.3550   -2.7550    3.5980 C   0  0  0  0  0  3  0  0  0  0  0  0
   10.0720   -1.7880    4.5780 C   0  0  0  0  0  0  0  0  0  0  0  0
   10.5800   -1.9130    6.5290 I   0  0  0  0  0  0  0  0  0  0  0  0
    9.4060   -0.7460    3.9840 C   0  0  0  0  0  3  0  0  0  0  0  0
    9.2520   -1.0620    2.6450 N   0  0  0  0  0  0  0  0  0  0  0  0
   10.9050   -2.4980    0.3160 C   0  0  0  0  0  2  0  0  0  0  0  0
    9.8440   -2.8510    1.0760 C   0  0  0  0  0  0  0  0  0  0  0  0
    8.8440   -3.6010    0.9280 O   0  0  0  0  0  0  0  0  0  0  0  0
   11.2840   -2.9280   -1.0730 C   0  0  0  0  0  0  0  0  0  0  0  0
   11.1580   -4.0550   -1.5460 O   0  0  0  0  0  0  0  0  0  0  0  0
   13.1290   -1.6490   -2.0430 O   0  0  0  0  0  1  0  0  0  0  0  0
   11.8640   -1.8380   -2.0240 C   0  0  0  0  0  0  0  0  0  0  0  0
   11.0230   -1.1980   -2.7490 O   0  0  0  0  0  0  0  0  0  0  0  0
    8.6390   -0.1820    1.6550 C   0  0  0  0  0  2  0  0  0  0  0  0
    9.5870    0.9070    1.1920 C   0  0  0  0  0  0  0  0  0  0  0  0
    9.9500    1.9590    2.0500 C   0  0  0  0  0  3  0  0  0  0  0  0
   10.8190    2.9580    1.6090 C   0  0  0  0  0  3  0  0  0  0  0  0
   11.3250    2.9090    0.3150 C   0  0  0  0  0  0  0  0  0  0  0  0
   12.1590    3.8740   -0.1000 F   0  0  0  0  0  0  0  0  0  0  0  0
   10.9800    1.8780   -0.5490 C   0  0  0  0  0  3  0  0  0  0  0  0
   10.1110    0.8780   -0.1110 C   0  0  0  0  0  3  0  0  0  0  0  0
  1  6  1  0  0  0  0
  1  2  2  0  0  0  0
  2  3  1  0  0  0  0
  3  4  1  0  0  0  0
  5  3  2  0  0  0  0
  6  5  1  0  0  0  0
  7  8  1  0  0  0  0
  8  1  1  0  0  0  0
  9  8  2  0  0  0  0
 10  7  1  0  0  0  0
 11 10  2  0  0  0  0
 12 13  1  0  0  0  0
 13 10  1  0  0  0  0
 14 13  2  0  0  0  0
 15  6  1  0  0  0  0
 16 15  1  0  0  0  0
 16 17  1  0  0  0  0
 18 17  2  0  0  0  0
 19 18  1  0  0  0  0
 20 19  1  0  0  0  0
 21 22  1  0  0  0  0
 21 19  2  0  0  0  0
 22 16  2  0  0  0  0
M  END
>  <minimizedAffinity>
-6.12582588

$$$$
