
 OpenBabel09132204463D

 22 23  0  0  0  0  0  0  0  0999 V2000
    9.8780   -2.4000    2.4450 C   0  0  0  0  0  0  0  0  0  0  0  0
   10.4020   -2.7060    3.6930 C   0  0  0  0  0  3  0  0  0  0  0  0
   10.1110   -1.6290    4.5470 C   0  0  0  0  0  0  0  0  0  0  0  0
   10.6400   -1.4990    6.4920 I   0  0  0  0  0  0  0  0  0  0  0  0
    9.4210   -0.6810    3.8360 C   0  0  0  0  0  3  0  0  0  0  0  0
    9.2590   -1.1640    2.5490 N   0  0  0  0  0  0  0  0  0  0  0  0
    8.7630   -3.8790    1.0160 C   0  0  0  0  0  2  0  0  0  0  0  0
    9.8680   -3.1260    1.2090 C   0  0  0  0  0  0  0  0  0  0  0  0
   10.9030   -2.8630    0.5420 O   0  0  0  0  0  0  0  0  0  0  0  0
    8.3580   -4.7170   -0.1640 C   0  0  0  0  0  0  0  0  0  0  0  0
    8.8810   -4.7110   -1.2760 O   0  0  0  0  0  0  0  0  0  0  0  0
    7.1420   -6.4040    1.1220 O   0  0  0  0  0  1  0  0  0  0  0  0
    7.1820   -5.7190    0.0420 C   0  0  0  0  0  0  0  0  0  0  0  0
    6.3090   -5.7840   -0.8930 O   0  0  0  0  0  0  0  0  0  0  0  0
    8.6200   -0.4260    1.4640 C   0  0  0  0  0  2  0  0  0  0  0  0
    9.5570    0.5830    0.8280 C   0  0  0  0  0  0  0  0  0  0  0  0
    9.8530    1.7960    1.4700 C   0  0  0  0  0  3  0  0  0  0  0  0
   10.7130    2.7180    0.8710 C   0  0  0  0  0  3  0  0  0  0  0  0
   11.2780    2.4300   -0.3660 C   0  0  0  0  0  0  0  0  0  0  0  0
   12.1020    3.3220   -0.9340 F   0  0  0  0  0  0  0  0  0  0  0  0
   11.0000    1.2350   -1.0180 C   0  0  0  0  0  3  0  0  0  0  0  0
   10.1400    0.3130   -0.4220 C   0  0  0  0  0  3  0  0  0  0  0  0
  1  6  1  0  0  0  0
  1  2  2  0  0  0  0
  2  3  1  0  0  0  0
  3  4  1  0  0  0  0
  5  3  2  0  0  0  0
  6  5  1  0  0  0  0
  7  8  1  0  0  0  0
  8  1  1  0  0  0  0
  9  8  2  0  0  0  0
 10 13  1  0  0  0  0
 10  7  1  0  0  0  0
 11 10  2  0  0  0  0
 13 12  1  0  0  0  0
 14 13  2  0  0  0  0
 15  6  1  0  0  0  0
 16 15  1  0  0  0  0
 16 17  1  0  0  0  0
 18 17  2  0  0  0  0
 19 18  1  0  0  0  0
 20 19  1  0  0  0  0
 21 22  1  0  0  0  0
 21 19  2  0  0  0  0
 22 16  2  0  0  0  0
M  END
>  <minimizedAffinity>
-6.33469868

$$$$
