
 OpenBabel09132204463D

 19 19  0  0  0  0  0  0  0  0999 V2000
    3.5770   -8.2110    1.0790 N   0  0  0  0  0  0  0  0  0  0  0  0
    2.7380   -9.2890    0.8960 C   0  0  0  0  0  3  0  0  0  0  0  0
    2.5310   -9.8920    2.1150 C   0  0  0  0  0  3  0  0  0  0  0  0
    3.3220   -9.2020    3.0580 C   0  0  0  0  0  3  0  0  0  0  0  0
    4.0080   -8.1890    2.4020 C   0  0  0  0  0  0  0  0  0  0  0  0
    4.9790   -7.2380    2.8910 C   0  0  0  0  0  0  0  0  0  0  0  0
    6.1220   -7.7640    2.9800 O   0  0  0  0  0  0  0  0  0  0  0  0
    4.4750   -6.0250    3.2110 C   0  0  0  0  0  2  0  0  0  0  0  0
    5.1670   -4.8200    3.7930 C   0  0  0  0  0  0  0  0  0  0  0  0
    6.0910   -4.1940    3.2790 O   0  0  0  0  0  0  0  0  0  0  0  0
    4.6540   -4.2760    5.1640 C   0  0  0  0  0  0  0  0  0  0  0  0
    4.9160   -4.9780    6.2040 O   0  0  0  0  0  1  0  0  0  0  0  0
    4.0030   -3.1740    5.1830 O   0  0  0  0  0  0  0  0  0  0  0  0
    4.0010   -7.2680    0.0530 C   0  0  0  0  0  2  0  0  0  0  0  0
    5.4470   -7.3690   -0.4610 C   0  0  0  0  0  2  0  0  0  0  0  0
    6.1820   -6.0490   -0.7310 C   0  0  0  0  0  2  0  0  0  0  0  0
    7.2390   -5.6520    0.2930 C   0  0  0  0  0  2  0  0  0  0  0  0
    9.3250   -4.2040   -0.8400 N   0  0  0  0  0  1  0  0  0  0  0  0
    8.3790   -4.8610   -0.3260 C   0  0  0  0  0  2  0  0  0  0  0  0
  1  5  1  0  0  0  0
  2  1  1  0  0  0  0
  2  3  2  0  0  0  0
  3  4  1  0  0  0  0
  5  6  1  0  0  0  0
  5  4  2  0  0  0  0
  6  7  2  0  0  0  0
  6  8  1  0  0  0  0
  8  9  1  0  0  0  0
  9 11  1  0  0  0  0
 10  9  2  0  0  0  0
 11 13  2  0  0  0  0
 11 12  1  0  0  0  0
 14  1  1  0  0  0  0
 15 14  1  0  0  0  0
 16 15  1  0  0  0  0
 16 17  1  0  0  0  0
 18 19  1  0  0  0  0
 19 17  1  0  0  0  0
M  END
>  <minimizedAffinity>
-5.87512922

$$$$
