
 OpenBabel09132204463D

 19 19  0  0  0  0  0  0  0  0999 V2000
    4.8810   -6.3070    2.0860 N   0  0  0  0  0  0  0  0  0  0  0  0
    4.5140   -4.9830    2.1950 C   0  0  0  0  0  3  0  0  0  0  0  0
    4.0920   -4.7530    3.4850 C   0  0  0  0  0  3  0  0  0  0  0  0
    4.1380   -5.9900    4.1620 C   0  0  0  0  0  3  0  0  0  0  0  0
    4.5810   -6.9630    3.2760 C   0  0  0  0  0  0  0  0  0  0  0  0
    4.7530   -8.3860    3.4480 C   0  0  0  0  0  0  0  0  0  0  0  0
    5.9590   -8.6710    3.6820 O   0  0  0  0  0  0  0  0  0  0  0  0
    3.6330   -9.1200    3.2640 C   0  0  0  0  0  2  0  0  0  0  0  0
    3.4450  -10.6150    3.3070 C   0  0  0  0  0  0  0  0  0  0  0  0
    2.6490  -11.2270    4.0150 O   0  0  0  0  0  0  0  0  0  0  0  0
    4.3120  -11.4870    2.3440 C   0  0  0  0  0  0  0  0  0  0  0  0
    3.8120  -11.7600    1.1960 O   0  0  0  0  0  0  0  0  0  0  0  0
    5.4620  -11.8850    2.7430 O   0  0  0  0  0  1  0  0  0  0  0  0
    5.4390   -6.9490    0.9030 C   0  0  0  0  0  2  0  0  0  0  0  0
    5.4250   -6.1590   -0.4160 C   0  0  0  0  0  2  0  0  0  0  0  0
    6.7730   -5.6280   -0.9230 C   0  0  0  0  0  2  0  0  0  0  0  0
    7.7880   -5.2540    0.1500 C   0  0  0  0  0  2  0  0  0  0  0  0
    9.9170   -3.7830   -0.8690 N   0  0  0  0  0  1  0  0  0  0  0  0
    8.9520   -4.4500   -0.4070 C   0  0  0  0  0  2  0  0  0  0  0  0
  1  2  1  0  0  0  0
  1  5  1  0  0  0  0
  2  3  2  0  0  0  0
  3  4  1  0  0  0  0
  5  6  1  0  0  0  0
  5  4  2  0  0  0  0
  6  7  2  0  0  0  0
  8  9  1  0  0  0  0
  8  6  1  0  0  0  0
  9 10  2  0  0  0  0
 11 13  1  0  0  0  0
 11  9  1  0  0  0  0
 12 11  2  0  0  0  0
 14  1  1  0  0  0  0
 15 14  1  0  0  0  0
 16 15  1  0  0  0  0
 16 17  1  0  0  0  0
 18 19  1  0  0  0  0
 19 17  1  0  0  0  0
M  END
>  <minimizedAffinity>
-5.40945959

$$$$
