
 OpenBabel09132204463D

 19 19  0  0  0  0  0  0  0  0999 V2000
    3.4460   -5.2780    4.6410 N   0  0  0  0  0  0  0  0  0  0  0  0
    2.5470   -4.5400    5.3810 C   0  0  0  0  0  3  0  0  0  0  0  0
    2.4520   -3.2850    4.8260 C   0  0  0  0  0  3  0  0  0  0  0  0
    3.3710   -3.2340    3.7570 C   0  0  0  0  0  3  0  0  0  0  0  0
    4.0230   -4.4580    3.6770 C   0  0  0  0  0  0  0  0  0  0  0  0
    5.0820   -4.9070    2.8030 C   0  0  0  0  0  0  0  0  0  0  0  0
    6.2120   -4.5790    3.2570 O   0  0  0  0  0  0  0  0  0  0  0  0
    4.6640   -5.5140    1.6700 C   0  0  0  0  0  2  0  0  0  0  0  0
    5.4700   -6.0560    0.5170 C   0  0  0  0  0  0  0  0  0  0  0  0
    6.6270   -5.7550    0.2350 O   0  0  0  0  0  0  0  0  0  0  0  0
    4.8000   -7.1270   -0.4010 C   0  0  0  0  0  0  0  0  0  0  0  0
    5.5580   -7.7320   -1.2390 O   0  0  0  0  0  0  0  0  0  0  0  0
    3.5440   -7.3440   -0.2770 O   0  0  0  0  0  1  0  0  0  0  0  0
    3.7920   -6.6760    4.8570 C   0  0  0  0  0  2  0  0  0  0  0  0
    2.9180   -7.7450    4.1800 C   0  0  0  0  0  2  0  0  0  0  0  0
    3.5940   -8.6260    3.1200 C   0  0  0  0  0  2  0  0  0  0  0  0
    4.8220   -9.4010    3.5800 C   0  0  0  0  0  2  0  0  0  0  0  0
    7.1730   -8.4360    2.4530 N   0  0  0  0  0  1  0  0  0  0  0  0
    6.1070   -8.8740    2.9640 C   0  0  0  0  0  2  0  0  0  0  0  0
  1 14  1  0  0  0  0
  1  2  1  0  0  0  0
  3  2  2  0  0  0  0
  4  3  1  0  0  0  0
  5  4  2  0  0  0  0
  5  1  1  0  0  0  0
  6  7  2  0  0  0  0
  6  5  1  0  0  0  0
  8  6  1  0  0  0  0
  9  8  1  0  0  0  0
 10  9  2  0  0  0  0
 11 13  1  0  0  0  0
 11  9  1  0  0  0  0
 12 11  2  0  0  0  0
 15 14  1  0  0  0  0
 16 17  1  0  0  0  0
 16 15  1  0  0  0  0
 18 19  1  0  0  0  0
 19 17  1  0  0  0  0
M  END
>  <minimizedAffinity>
-5.44270372

$$$$
