
 OpenBabel09132204463D

 19 19  0  0  0  0  0  0  0  0999 V2000
    6.3140   -6.0180    0.6240 N   0  0  0  0  0  0  0  0  0  0  0  0
    6.1430   -6.5990   -0.6140 C   0  0  0  0  0  3  0  0  0  0  0  0
    4.8590   -7.0870   -0.6930 C   0  0  0  0  0  3  0  0  0  0  0  0
    4.2510   -6.8580    0.5590 C   0  0  0  0  0  3  0  0  0  0  0  0
    5.1750   -6.2380    1.3910 C   0  0  0  0  0  0  0  0  0  0  0  0
    5.0770   -5.8410    2.7760 C   0  0  0  0  0  0  0  0  0  0  0  0
    5.3000   -6.8170    3.5430 O   0  0  0  0  0  0  0  0  0  0  0  0
    4.7120   -4.5550    2.9740 C   0  0  0  0  0  2  0  0  0  0  0  0
    4.4600   -3.8140    4.2620 C   0  0  0  0  0  0  0  0  0  0  0  0
    3.5320   -3.0400    4.4860 O   0  0  0  0  0  0  0  0  0  0  0  0
    5.4410   -4.0650    5.4510 C   0  0  0  0  0  0  0  0  0  0  0  0
    5.0180   -4.8030    6.4100 O   0  0  0  0  0  1  0  0  0  0  0  0
    6.6030   -3.5270    5.4140 O   0  0  0  0  0  0  0  0  0  0  0  0
    7.5100   -5.3320    1.0930 C   0  0  0  0  0  2  0  0  0  0  0  0
    8.5250   -4.8570    0.0400 C   0  0  0  0  0  2  0  0  0  0  0  0
    9.3030   -3.5710    0.3540 C   0  0  0  0  0  2  0  0  0  0  0  0
   10.7320   -3.5110   -0.1680 C   0  0  0  0  0  2  0  0  0  0  0  0
   11.0810   -1.5270   -2.0860 N   0  0  0  0  0  1  0  0  0  0  0  0
   10.9230   -2.4270   -1.2160 C   0  0  0  0  0  2  0  0  0  0  0  0
  1 14  1  0  0  0  0
  1  5  1  0  0  0  0
  2  1  1  0  0  0  0
  3  2  2  0  0  0  0
  3  4  1  0  0  0  0
  4  5  2  0  0  0  0
  5  6  1  0  0  0  0
  6  8  1  0  0  0  0
  6  7  2  0  0  0  0
  8  9  1  0  0  0  0
  9 10  2  0  0  0  0
  9 11  1  0  0  0  0
 11 12  1  0  0  0  0
 13 11  2  0  0  0  0
 15 16  1  0  0  0  0
 15 14  1  0  0  0  0
 17 16  1  0  0  0  0
 18 19  1  0  0  0  0
 19 17  1  0  0  0  0
M  END
>  <minimizedAffinity>
-5.63116503

$$$$
