
 OpenBabel09132204463D

 19 19  0  0  0  0  0  0  0  0999 V2000
    3.9430   -8.2720    2.7390 N   0  0  0  0  0  0  0  0  0  0  0  0
    2.7940   -8.9060    2.3180 C   0  0  0  0  0  3  0  0  0  0  0  0
    3.0120   -9.4140    1.0580 C   0  0  0  0  0  3  0  0  0  0  0  0
    4.3100   -9.0180    0.6710 C   0  0  0  0  0  3  0  0  0  0  0  0
    4.8670   -8.2660    1.6980 C   0  0  0  0  0  0  0  0  0  0  0  0
    6.1380   -7.5870    1.7860 C   0  0  0  0  0  0  0  0  0  0  0  0
    6.9630   -8.2580    2.4640 O   0  0  0  0  0  0  0  0  0  0  0  0
    6.1740   -6.3700    1.1990 C   0  0  0  0  0  2  0  0  0  0  0  0
    7.2960   -5.3650    1.1380 C   0  0  0  0  0  0  0  0  0  0  0  0
    7.7470   -4.7230    2.0830 O   0  0  0  0  0  0  0  0  0  0  0  0
    7.9870   -5.1270   -0.2420 C   0  0  0  0  0  0  0  0  0  0  0  0
    9.2500   -4.9050   -0.2300 O   0  0  0  0  0  1  0  0  0  0  0  0
    7.2700   -5.1590   -1.3020 O   0  0  0  0  0  0  0  0  0  0  0  0
    4.1550   -7.6500    4.0380 C   0  0  0  0  0  2  0  0  0  0  0  0
    3.6310   -6.2190    4.2430 C   0  0  0  0  0  2  0  0  0  0  0  0
    4.6700   -5.0880    4.2210 C   0  0  0  0  0  2  0  0  0  0  0  0
    4.2780   -3.8370    3.4460 C   0  0  0  0  0  2  0  0  0  0  0  0
    2.1010   -2.5250    4.5760 N   0  0  0  0  0  1  0  0  0  0  0  0
    3.0880   -3.1200    4.0640 C   0  0  0  0  0  2  0  0  0  0  0  0
  1 14  1  0  0  0  0
  2  1  1  0  0  0  0
  3  2  2  0  0  0  0
  4  3  1  0  0  0  0
  4  5  2  0  0  0  0
  5  6  1  0  0  0  0
  5  1  1  0  0  0  0
  6  7  2  0  0  0  0
  8  6  1  0  0  0  0
  9  8  1  0  0  0  0
  9 10  2  0  0  0  0
 11 12  1  0  0  0  0
 11  9  1  0  0  0  0
 13 11  2  0  0  0  0
 14 15  1  0  0  0  0
 16 15  1  0  0  0  0
 17 19  1  0  0  0  0
 17 16  1  0  0  0  0
 19 18  1  0  0  0  0
M  END
>  <minimizedAffinity>
-5.44041872

$$$$
