
 OpenBabel09122222393D

 33 37  0  0  0  0  0  0  0  0999 V2000
    7.8920   -4.6200    0.8640 C   0  0  0  0  0  0  0  0  0  0  0  0
    8.0990   -3.6200    1.8180 C   0  0  0  0  0  3  0  0  0  0  0  0
    7.2910   -3.5200    2.9550 C   0  0  0  0  0  3  0  0  0  0  0  0
    6.2310   -4.4290    3.1570 C   0  0  0  0  0  0  0  0  0  0  0  0
    5.2530   -4.6010    4.1950 C   0  0  0  0  0  0  0  0  0  0  0  0
    4.4630   -5.6890    3.8320 C   0  0  0  0  0  0  0  0  0  0  0  0
    4.9050   -6.1400    2.5950 N   0  0  0  0  0  0  0  0  0  0  0  0
    6.0190   -5.4240    2.1980 C   0  0  0  0  0  0  0  0  0  0  0  0
    6.8500   -5.5430    1.0660 C   0  0  0  0  0  3  0  0  0  0  0  0
    5.1060   -3.7870    5.4620 C   0  0  0  0  0  3  0  0  0  0  0  0
    6.3970   -3.0430    5.8400 C   0  0  0  0  0  2  0  0  0  0  0  0
    6.2300   -2.2530    7.1370 C   0  0  0  0  0  2  0  0  0  0  0  0
    5.0360   -1.3050    7.0700 C   0  0  0  0  0  2  0  0  0  0  0  0
    3.7510   -2.0450    6.7080 C   0  0  0  0  0  2  0  0  0  0  0  0
    3.9000   -2.8340    5.4080 C   0  0  0  0  0  2  0  0  0  0  0  0
    3.3480   -6.2930    4.5630 C   0  0  0  0  0  0  0  0  0  0  0  0
    3.5300   -7.4880    5.2670 C   0  0  0  0  0  3  0  0  0  0  0  0
    2.4670   -8.0600    5.9690 C   0  0  0  0  0  3  0  0  0  0  0  0
    1.2170   -7.4420    5.9650 C   0  0  0  0  0  3  0  0  0  0  0  0
    1.0260   -6.2550    5.2570 C   0  0  0  0  0  3  0  0  0  0  0  0
    2.0890   -5.6820    4.5560 C   0  0  0  0  0  3  0  0  0  0  0  0
    8.1820   -4.8890   -1.4890 O   0  0  0  0  0  0  0  0  0  0  0  0
    8.7670   -4.6960   -0.3760 C   0  0  0  0  0  0  0  0  0  0  0  0
   10.0220   -4.5720   -0.2100 O   0  0  0  0  0  1  0  0  0  0  0  0
    4.2780   -7.2370    1.8560 C   0  0  0  0  0  2  0  0  0  0  0  0
    4.7460   -8.6450    2.1640 C   0  0  0  0  0  0  0  0  0  0  0  0
    5.9450   -8.8280    2.4120 O   0  0  0  0  0  0  0  0  0  0  0  0
    3.8310   -9.6760    2.2850 N   0  0  0  0  0  0  0  0  0  0  0  0
    2.3740   -9.5550    2.2110 C   0  0  0  0  0  2  0  0  0  0  0  0
    1.6980  -10.4720    3.2380 C   0  0  0  0  0  2  0  0  0  0  0  0
    2.1420  -11.8300    3.1230 O   0  0  0  0  0  0  0  0  0  0  0  0
    3.5680  -11.9140    3.2960 C   0  0  0  0  0  2  0  0  0  0  0  0
    4.3130  -11.0600    2.2680 C   0  0  0  0  0  2  0  0  0  0  0  0
  1  9  2  0  0  0  0
  1  2  1  0  0  0  0
  2  3  2  0  0  0  0
  3  4  1  0  0  0  0
  4  5  1  0  0  0  0
  5 10  1  0  0  0  0
  6  5  2  0  0  0  0
  6 16  1  0  0  0  0
  7  6  1  0  0  0  0
  8  7  1  0  0  0  0
  8  4  2  0  0  0  0
  9  8  1  0  0  0  0
 10 11  1  0  0  0  0
 11 12  1  0  0  0  0
 13 12  1  0  0  0  0
 14 13  1  0  0  0  0
 15 10  1  0  0  0  0
 15 14  1  0  0  0  0
 16 17  1  0  0  0  0
 17 18  2  0  0  0  0
 19 18  1  0  0  0  0
 20 19  2  0  0  0  0
 21 16  2  0  0  0  0
 21 20  1  0  0  0  0
 22 23  2  0  0  0  0
 23 24  1  0  0  0  0
 23  1  1  0  0  0  0
 25 26  1  0  0  0  0
 25  7  1  0  0  0  0
 26 28  1  0  0  0  0
 26 27  2  0  0  0  0
 29 28  1  0  0  0  0
 29 30  1  0  0  0  0
 31 30  1  0  0  0  0
 31 32  1  0  0  0  0
 33 28  1  0  0  0  0
 33 32  1  0  0  0  0
M  END
>  <minimizedAffinity>
-7.12325478

$$$$
