
 OpenBabel09122222393D

 33 37  0  0  0  0  0  0  0  0999 V2000
    2.7760   -3.2760    4.9370 C   0  0  0  0  0  0  0  0  0  0  0  0
    3.6230   -2.8900    3.8950 C   0  0  0  0  0  3  0  0  0  0  0  0
    4.2880   -3.8360    3.1070 C   0  0  0  0  0  3  0  0  0  0  0  0
    4.1250   -5.2140    3.3620 C   0  0  0  0  0  0  0  0  0  0  0  0
    4.6410   -6.4060    2.7490 C   0  0  0  0  0  0  0  0  0  0  0  0
    4.1100   -7.4850    3.4490 C   0  0  0  0  0  0  0  0  0  0  0  0
    3.3360   -6.9790    4.4860 N   0  0  0  0  0  0  0  0  0  0  0  0
    3.2840   -5.6000    4.4090 C   0  0  0  0  0  0  0  0  0  0  0  0
    2.5910   -4.6490    5.1850 C   0  0  0  0  0  3  0  0  0  0  0  0
    5.5640   -6.4970    1.5520 C   0  0  0  0  0  3  0  0  0  0  0  0
    4.8140   -6.3710    0.2160 C   0  0  0  0  0  2  0  0  0  0  0  0
    5.7630   -6.4950   -0.9740 C   0  0  0  0  0  2  0  0  0  0  0  0
    6.9160   -5.4990   -0.8810 C   0  0  0  0  0  2  0  0  0  0  0  0
    7.6700   -5.6330    0.4390 C   0  0  0  0  0  2  0  0  0  0  0  0
    6.7330   -5.5030    1.6390 C   0  0  0  0  0  2  0  0  0  0  0  0
    4.3000   -8.9160    3.2050 C   0  0  0  0  0  0  0  0  0  0  0  0
    5.1920   -9.6540    3.9900 C   0  0  0  0  0  3  0  0  0  0  0  0
    5.3680  -11.0200    3.7600 C   0  0  0  0  0  3  0  0  0  0  0  0
    4.6560  -11.6520    2.7420 C   0  0  0  0  0  3  0  0  0  0  0  0
    3.7710  -10.9200    1.9490 C   0  0  0  0  0  3  0  0  0  0  0  0
    3.5950   -9.5550    2.1790 C   0  0  0  0  0  3  0  0  0  0  0  0
    1.2480   -1.4660    5.2130 O   0  0  0  0  0  0  0  0  0  0  0  0
    2.0820   -2.2310    5.7940 C   0  0  0  0  0  0  0  0  0  0  0  0
    2.3920   -2.1900    7.0260 O   0  0  0  0  0  1  0  0  0  0  0  0
    2.6610   -7.8140    5.4810 C   0  0  0  0  0  2  0  0  0  0  0  0
    1.1750   -8.0510    5.3040 C   0  0  0  0  0  0  0  0  0  0  0  0
    0.4290   -7.0680    5.2010 O   0  0  0  0  0  0  0  0  0  0  0  0
    0.6870   -9.3350    5.1380 N   0  0  0  0  0  0  0  0  0  0  0  0
    1.4820  -10.5590    5.0420 C   0  0  0  0  0  2  0  0  0  0  0  0
    0.8910  -11.5140    3.9970 C   0  0  0  0  0  2  0  0  0  0  0  0
   -0.4980  -11.7780    4.2330 O   0  0  0  0  0  0  0  0  0  0  0  0
   -1.2560  -10.5560    4.2250 C   0  0  0  0  0  2  0  0  0  0  0  0
   -0.7520   -9.5720    5.2820 C   0  0  0  0  0  2  0  0  0  0  0  0
  1  9  1  0  0  0  0
  1 23  1  0  0  0  0
  2  1  2  0  0  0  0
  3  4  2  0  0  0  0
  3  2  1  0  0  0  0
  4  8  1  0  0  0  0
  5  4  1  0  0  0  0
  5  6  2  0  0  0  0
  6  7  1  0  0  0  0
  7 25  1  0  0  0  0
  8  7  1  0  0  0  0
  8  9  2  0  0  0  0
 10 15  1  0  0  0  0
 10  5  1  0  0  0  0
 11 10  1  0  0  0  0
 12 13  1  0  0  0  0
 12 11  1  0  0  0  0
 13 14  1  0  0  0  0
 14 15  1  0  0  0  0
 16  6  1  0  0  0  0
 16 17  1  0  0  0  0
 18 17  2  0  0  0  0
 19 18  1  0  0  0  0
 20 21  1  0  0  0  0
 20 19  2  0  0  0  0
 21 16  2  0  0  0  0
 22 23  2  0  0  0  0
 23 24  1  0  0  0  0
 26 25  1  0  0  0  0
 27 26  2  0  0  0  0
 28 33  1  0  0  0  0
 28 26  1  0  0  0  0
 29 28  1  0  0  0  0
 30 31  1  0  0  0  0
 30 29  1  0  0  0  0
 32 31  1  0  0  0  0
 32 33  1  0  0  0  0
M  END
>  <minimizedAffinity>
-8.41838837

$$$$
