
 OpenBabel09122222393D

 33 37  0  0  0  0  0  0  0  0999 V2000
    6.3590   -6.0870    1.6170 C   0  0  0  0  0  0  0  0  0  0  0  0
    6.2960   -7.2310    0.8160 C   0  0  0  0  0  3  0  0  0  0  0  0
    5.4280   -8.2850    1.1180 C   0  0  0  0  0  3  0  0  0  0  0  0
    4.6000   -8.2210    2.2580 C   0  0  0  0  0  0  0  0  0  0  0  0
    3.6190   -9.1030    2.8250 C   0  0  0  0  0  0  0  0  0  0  0  0
    3.1270   -8.4810    3.9690 C   0  0  0  0  0  0  0  0  0  0  0  0
    3.8130   -7.2840    4.1300 N   0  0  0  0  0  0  0  0  0  0  0  0
    4.6690   -7.0810    3.0640 C   0  0  0  0  0  0  0  0  0  0  0  0
    5.5220   -6.0050    2.7450 C   0  0  0  0  0  3  0  0  0  0  0  0
    3.1680  -10.4440    2.2860 C   0  0  0  0  0  3  0  0  0  0  0  0
    1.6380  -10.5630    2.2020 C   0  0  0  0  0  2  0  0  0  0  0  0
    1.2100  -11.9350    1.6820 C   0  0  0  0  0  2  0  0  0  0  0  0
    1.8720  -12.2620    0.3470 C   0  0  0  0  0  2  0  0  0  0  0  0
    3.3920  -12.1570    0.4310 C   0  0  0  0  0  2  0  0  0  0  0  0
    3.8350  -10.7870    0.9430 C   0  0  0  0  0  2  0  0  0  0  0  0
    2.0880   -8.9490    4.8890 C   0  0  0  0  0  0  0  0  0  0  0  0
    0.7610   -8.5400    4.7220 C   0  0  0  0  0  3  0  0  0  0  0  0
   -0.2300   -8.9910    5.5960 C   0  0  0  0  0  3  0  0  0  0  0  0
    0.1040   -9.8490    6.6440 C   0  0  0  0  0  3  0  0  0  0  0  0
    1.4270  -10.2530    6.8220 C   0  0  0  0  0  3  0  0  0  0  0  0
    2.4180   -9.8030    5.9470 C   0  0  0  0  0  3  0  0  0  0  0  0
    7.6070   -4.1450    2.2150 O   0  0  0  0  0  1  0  0  0  0  0  0
    7.3250   -4.9640    1.2830 C   0  0  0  0  0  0  0  0  0  0  0  0
    7.7730   -4.9160    0.0930 O   0  0  0  0  0  0  0  0  0  0  0  0
    3.6130   -6.3760    5.2610 C   0  0  0  0  0  2  0  0  0  0  0  0
    2.7290   -5.1660    5.0390 C   0  0  0  0  0  0  0  0  0  0  0  0
    1.5770   -5.3450    4.6240 O   0  0  0  0  0  0  0  0  0  0  0  0
    3.1630   -3.9060    5.4110 N   0  0  0  0  0  0  0  0  0  0  0  0
    4.4180   -3.5870    6.0920 C   0  0  0  0  0  2  0  0  0  0  0  0
    4.2080   -2.4830    7.1360 C   0  0  0  0  0  2  0  0  0  0  0  0
    3.5780   -1.3240    6.5750 O   0  0  0  0  0  0  0  0  0  0  0  0
    2.3050   -1.6660    6.0010 C   0  0  0  0  0  2  0  0  0  0  0  0
    2.4440   -2.7310    4.9110 C   0  0  0  0  0  2  0  0  0  0  0  0
  1  9  1  0  0  0  0
  2  3  1  0  0  0  0
  2  1  2  0  0  0  0
  3  4  2  0  0  0  0
  4  5  1  0  0  0  0
  4  8  1  0  0  0  0
  5  6  2  0  0  0  0
  6  7  1  0  0  0  0
  6 16  1  0  0  0  0
  7 25  1  0  0  0  0
  8  7  1  0  0  0  0
  9  8  2  0  0  0  0
 10  5  1  0  0  0  0
 11 10  1  0  0  0  0
 12 11  1  0  0  0  0
 13 14  1  0  0  0  0
 13 12  1  0  0  0  0
 14 15  1  0  0  0  0
 15 10  1  0  0  0  0
 16 21  1  0  0  0  0
 17 16  2  0  0  0  0
 17 18  1  0  0  0  0
 18 19  2  0  0  0  0
 19 20  1  0  0  0  0
 21 20  2  0  0  0  0
 23  1  1  0  0  0  0
 23 22  1  0  0  0  0
 24 23  2  0  0  0  0
 26 25  1  0  0  0  0
 26 28  1  0  0  0  0
 27 26  2  0  0  0  0
 28 29  1  0  0  0  0
 29 30  1  0  0  0  0
 31 30  1  0  0  0  0
 32 31  1  0  0  0  0
 33 28  1  0  0  0  0
 33 32  1  0  0  0  0
M  END
>  <minimizedAffinity>
-6.0846529

$$$$
