
 OpenBabel09122222393D

 33 37  0  0  0  0  0  0  0  0999 V2000
    7.8550   -4.5950    0.8700 C   0  0  0  0  0  0  0  0  0  0  0  0
    8.0390   -3.5870    1.8200 C   0  0  0  0  0  3  0  0  0  0  0  0
    7.2270   -3.5000    2.9560 C   0  0  0  0  0  3  0  0  0  0  0  0
    6.1850   -4.4300    3.1600 C   0  0  0  0  0  0  0  0  0  0  0  0
    5.2090   -4.6170    4.1960 C   0  0  0  0  0  0  0  0  0  0  0  0
    4.4430   -5.7220    3.8360 C   0  0  0  0  0  0  0  0  0  0  0  0
    4.8960   -6.1690    2.6010 N   0  0  0  0  0  0  0  0  0  0  0  0
    5.9960   -5.4320    2.2040 C   0  0  0  0  0  0  0  0  0  0  0  0
    6.8320   -5.5390    1.0740 C   0  0  0  0  0  3  0  0  0  0  0  0
    5.0440   -3.8020    5.4600 C   0  0  0  0  0  3  0  0  0  0  0  0
    6.3200   -3.0350    5.8410 C   0  0  0  0  0  2  0  0  0  0  0  0
    6.1350   -2.2450    7.1350 C   0  0  0  0  0  2  0  0  0  0  0  0
    4.9260   -1.3160    7.0590 C   0  0  0  0  0  2  0  0  0  0  0  0
    3.6550   -2.0780    6.6940 C   0  0  0  0  0  2  0  0  0  0  0  0
    3.8230   -2.8690    5.3970 C   0  0  0  0  0  2  0  0  0  0  0  0
    3.3390   -6.3460    4.5670 C   0  0  0  0  0  0  0  0  0  0  0  0
    2.0870   -5.7240    4.6220 C   0  0  0  0  0  3  0  0  0  0  0  0
    1.0330   -6.3230    5.3140 C   0  0  0  0  0  3  0  0  0  0  0  0
    1.2280   -7.5440    5.9580 C   0  0  0  0  0  3  0  0  0  0  0  0
    2.4760   -8.1660    5.9150 C   0  0  0  0  0  3  0  0  0  0  0  0
    3.5300   -7.5680    5.2230 C   0  0  0  0  0  3  0  0  0  0  0  0
    9.9890   -4.5470   -0.1940 O   0  0  0  0  0  1  0  0  0  0  0  0
    8.7340   -4.6570   -0.3680 C   0  0  0  0  0  0  0  0  0  0  0  0
    8.1500   -4.8040   -1.4880 O   0  0  0  0  0  0  0  0  0  0  0  0
    4.2930   -7.2820    1.8660 C   0  0  0  0  0  2  0  0  0  0  0  0
    4.7380   -8.6840    2.2300 C   0  0  0  0  0  0  0  0  0  0  0  0
    5.9170   -8.8610    2.5640 O   0  0  0  0  0  0  0  0  0  0  0  0
    3.8160   -9.7130    2.3040 N   0  0  0  0  0  0  0  0  0  0  0  0
    2.3680   -9.5940    2.1280 C   0  0  0  0  0  2  0  0  0  0  0  0
    1.6210  -10.4940    3.1210 C   0  0  0  0  0  2  0  0  0  0  0  0
    2.0720  -11.8530    3.0610 O   0  0  0  0  0  0  0  0  0  0  0  0
    3.4820  -11.9330    3.3340 C   0  0  0  0  0  2  0  0  0  0  0  0
    4.2970  -11.0970    2.3460 C   0  0  0  0  0  2  0  0  0  0  0  0
  1  9  2  0  0  0  0
  1  2  1  0  0  0  0
  2  3  2  0  0  0  0
  3  4  1  0  0  0  0
  4  5  1  0  0  0  0
  5 10  1  0  0  0  0
  6  5  2  0  0  0  0
  6 16  1  0  0  0  0
  7  6  1  0  0  0  0
  8  7  1  0  0  0  0
  8  4  2  0  0  0  0
  9  8  1  0  0  0  0
 10 11  1  0  0  0  0
 11 12  1  0  0  0  0
 13 12  1  0  0  0  0
 14 13  1  0  0  0  0
 15 10  1  0  0  0  0
 15 14  1  0  0  0  0
 16 17  2  0  0  0  0
 16 21  1  0  0  0  0
 17 18  1  0  0  0  0
 18 19  2  0  0  0  0
 20 19  1  0  0  0  0
 21 20  2  0  0  0  0
 23 22  1  0  0  0  0
 23  1  1  0  0  0  0
 24 23  2  0  0  0  0
 25 26  1  0  0  0  0
 25  7  1  0  0  0  0
 26 28  1  0  0  0  0
 26 27  2  0  0  0  0
 28 33  1  0  0  0  0
 29 28  1  0  0  0  0
 29 30  1  0  0  0  0
 31 30  1  0  0  0  0
 31 32  1  0  0  0  0
 33 32  1  0  0  0  0
M  END
>  <minimizedAffinity>
-7.11122227

$$$$
