
 OpenBabel09122222393D

 33 37  0  0  0  0  0  0  0  0999 V2000
    3.6930   -4.3990    5.5490 C   0  0  0  0  0  0  0  0  0  0  0  0
    2.4880   -4.8440    6.1010 C   0  0  0  0  0  3  0  0  0  0  0  0
    1.9780   -6.1130    5.8090 C   0  0  0  0  0  3  0  0  0  0  0  0
    2.6700   -6.9740    4.9300 C   0  0  0  0  0  0  0  0  0  0  0  0
    2.4280   -8.3050    4.4470 C   0  0  0  0  0  0  0  0  0  0  0  0
    3.4820   -8.6250    3.5960 C   0  0  0  0  0  0  0  0  0  0  0  0
    4.3160   -7.5170    3.5180 N   0  0  0  0  0  0  0  0  0  0  0  0
    3.8700   -6.5260    4.3720 C   0  0  0  0  0  0  0  0  0  0  0  0
    4.4000   -5.2580    4.6880 C   0  0  0  0  0  3  0  0  0  0  0  0
    1.2720   -9.2150    4.8020 C   0  0  0  0  0  3  0  0  0  0  0  0
    1.2910   -9.6480    6.2760 C   0  0  0  0  0  2  0  0  0  0  0  0
    0.1320  -10.5880    6.6000 C   0  0  0  0  0  2  0  0  0  0  0  0
   -1.2120   -9.9780    6.2130 C   0  0  0  0  0  2  0  0  0  0  0  0
   -1.2380   -9.5590    4.7460 C   0  0  0  0  0  2  0  0  0  0  0  0
   -0.0870   -8.6130    4.4080 C   0  0  0  0  0  2  0  0  0  0  0  0
    3.7260   -9.8730    2.8720 C   0  0  0  0  0  0  0  0  0  0  0  0
    4.5600  -10.8550    3.4180 C   0  0  0  0  0  3  0  0  0  0  0  0
    4.7860  -12.0490    2.7290 C   0  0  0  0  0  3  0  0  0  0  0  0
    4.1840  -12.2620    1.4900 C   0  0  0  0  0  3  0  0  0  0  0  0
    3.3590  -11.2840    0.9350 C   0  0  0  0  0  3  0  0  0  0  0  0
    3.1310  -10.0910    1.6240 C   0  0  0  0  0  3  0  0  0  0  0  0
    3.3710   -2.0590    5.8750 O   0  0  0  0  0  0  0  0  0  0  0  0
    4.2170   -3.0090    5.8620 C   0  0  0  0  0  0  0  0  0  0  0  0
    5.4650   -2.8930    6.0770 O   0  0  0  0  0  1  0  0  0  0  0  0
    5.5060   -7.4510    2.6670 C   0  0  0  0  0  2  0  0  0  0  0  0
    5.3320   -6.9090    1.2630 C   0  0  0  0  0  0  0  0  0  0  0  0
    4.1840   -6.7730    0.8200 O   0  0  0  0  0  0  0  0  0  0  0  0
    6.4280   -6.4640    0.5450 N   0  0  0  0  0  0  0  0  0  0  0  0
    7.8070   -6.3860    1.0270 C   0  0  0  0  0  2  0  0  0  0  0  0
    8.4950   -5.1150    0.5140 C   0  0  0  0  0  2  0  0  0  0  0  0
    8.4040   -4.9910   -0.9110 O   0  0  0  0  0  0  0  0  0  0  0  0
    7.0290   -4.9760   -1.3330 C   0  0  0  0  0  2  0  0  0  0  0  0
    6.2910   -6.2430   -0.8970 C   0  0  0  0  0  2  0  0  0  0  0  0
  1 23  1  0  0  0  0
  1  2  1  0  0  0  0
  3  2  2  0  0  0  0
  4  3  1  0  0  0  0
  5 10  1  0  0  0  0
  5  4  1  0  0  0  0
  6  5  2  0  0  0  0
  7  6  1  0  0  0  0
  7  8  1  0  0  0  0
  8  9  1  0  0  0  0
  8  4  2  0  0  0  0
  9  1  2  0  0  0  0
 10 11  1  0  0  0  0
 11 12  1  0  0  0  0
 13 12  1  0  0  0  0
 14 13  1  0  0  0  0
 15 14  1  0  0  0  0
 15 10  1  0  0  0  0
 16 17  1  0  0  0  0
 16  6  1  0  0  0  0
 18 17  2  0  0  0  0
 19 18  1  0  0  0  0
 20 19  2  0  0  0  0
 20 21  1  0  0  0  0
 21 16  2  0  0  0  0
 23 22  2  0  0  0  0
 23 24  1  0  0  0  0
 25  7  1  0  0  0  0
 26 25  1  0  0  0  0
 27 26  2  0  0  0  0
 28 29  1  0  0  0  0
 28 26  1  0  0  0  0
 30 29  1  0  0  0  0
 31 30  1  0  0  0  0
 32 31  1  0  0  0  0
 32 33  1  0  0  0  0
 33 28  1  0  0  0  0
M  END
>  <minimizedAffinity>
-7.2498312

$$$$
