
 OpenBabel09122222393D

 25 27  0  0  0  0  0  0  0  0999 V2000
    9.4560   -2.0440    2.7800 C   0  0  0  0  0  0  0  0  0  0  0  0
   10.4370   -2.4110    1.8500 C   0  0  0  0  0  3  0  0  0  0  0  0
   10.1320   -3.3380    0.8510 C   0  0  0  0  0  3  0  0  0  0  0  0
    8.8570   -3.8990    0.7890 C   0  0  0  0  0  0  0  0  0  0  0  0
    7.8920   -3.5760    1.7480 C   0  0  0  0  0  3  0  0  0  0  0  0
    8.1930   -2.6480    2.7460 C   0  0  0  0  0  3  0  0  0  0  0  0
    9.7730   -1.5790    5.0370 O   0  0  0  0  0  0  0  0  0  0  0  0
    9.7650   -1.1190    3.8930 C   0  0  0  0  0  0  0  0  0  0  0  0
   10.0650    0.2010    3.6870 N   0  0  0  0  0  0  0  0  0  0  0  0
    9.8870    0.9210    2.5420 C   0  0  0  0  0  0  0  0  0  0  0  0
    9.3840    0.5470    1.3950 N   0  0  0  0  0  0  0  0  0  0  0  0
    9.4030    1.6330    0.5320 C   0  0  0  0  0  3  0  0  0  0  0  0
    9.9150    2.8010    1.0560 C   0  0  0  0  0  0  0  0  0  0  0  0
   10.3810    2.5480    2.6800 S   0  0  0  0  0  0  0  0  0  0  0  0
   10.3710    0.7220    4.4940 H   0  0  0  0  0  0  0  0  0  0  0  0
   10.0290    4.0650    0.3050 C   0  0  0  0  0  0  0  0  0  0  0  0
   11.1940    4.5450    0.1530 O   0  0  0  0  0  1  0  0  0  0  0  0
    8.9440    4.5630   -0.1260 O   0  0  0  0  0  0  0  0  0  0  0  0
    8.6300   -4.8310   -0.1990 O   0  0  0  0  0  0  0  0  0  0  0  0
    7.5670   -5.6890   -0.0220 C   0  0  0  0  0  0  0  0  0  0  0  0
    7.6700   -6.6130    1.0190 C   0  0  0  0  0  3  0  0  0  0  0  0
    6.6440   -7.5330    1.2360 C   0  0  0  0  0  3  0  0  0  0  0  0
    5.5240   -7.5380    0.4030 C   0  0  0  0  0  3  0  0  0  0  0  0
    5.4330   -6.6290   -0.6520 C   0  0  0  0  0  3  0  0  0  0  0  0
    6.4580   -5.7080   -0.8720 C   0  0  0  0  0  3  0  0  0  0  0  0
  1  8  1  0  0  0  0
  2  1  2  0  0  0  0
  3  2  1  0  0  0  0
  4  3  2  0  0  0  0
  4  5  1  0  0  0  0
  5  6  2  0  0  0  0
  6  1  1  0  0  0  0
  8  7  2  0  0  0  0
  9  8  1  0  0  0  0
  9 15  1  0  0  0  0
 10 14  1  0  0  0  0
 10  9  1  0  0  0  0
 11 10  2  0  0  0  0
 12 13  2  0  0  0  0
 12 11  1  0  0  0  0
 13 14  1  0  0  0  0
 16 13  1  0  0  0  0
 17 16  1  0  0  0  0
 18 16  2  0  0  0  0
 19 20  1  0  0  0  0
 19  4  1  0  0  0  0
 20 21  1  0  0  0  0
 21 22  2  0  0  0  0
 23 22  1  0  0  0  0
 24 23  2  0  0  0  0
 25 24  1  0  0  0  0
 25 20  2  0  0  0  0
M  END
>  <minimizedAffinity>
-6.42290258

$$$$
