
 OpenBabel09122222393D

 25 27  0  0  0  0  0  0  0  0999 V2000
    9.5070   -3.5360   -0.1080 C   0  0  0  0  0  0  0  0  0  0  0  0
    8.6150   -4.4850   -0.6220 C   0  0  0  0  0  3  0  0  0  0  0  0
    7.6420   -5.0440    0.2100 C   0  0  0  0  0  3  0  0  0  0  0  0
    7.5680   -4.6600    1.5490 C   0  0  0  0  0  0  0  0  0  0  0  0
    8.4900   -3.7520    2.0780 C   0  0  0  0  0  3  0  0  0  0  0  0
    9.4620   -3.1900    1.2480 C   0  0  0  0  0  3  0  0  0  0  0  0
   11.2890   -3.7670   -1.5840 O   0  0  0  0  0  0  0  0  0  0  0  0
   10.5930   -2.9770   -0.9420 C   0  0  0  0  0  0  0  0  0  0  0  0
   10.8230   -1.6310   -1.0410 N   0  0  0  0  0  0  0  0  0  0  0  0
   10.3150   -0.6440   -0.2480 C   0  0  0  0  0  0  0  0  0  0  0  0
    9.5200   -0.7360    0.7860 N   0  0  0  0  0  0  0  0  0  0  0  0
    9.2830    0.5420    1.2720 C   0  0  0  0  0  3  0  0  0  0  0  0
    9.9140    1.5640    0.5950 C   0  0  0  0  0  0  0  0  0  0  0  0
   10.8410    0.9180   -0.6870 S   0  0  0  0  0  0  0  0  0  0  0  0
   11.5110   -1.3430   -1.7200 H   0  0  0  0  0  0  0  0  0  0  0  0
    9.7900    2.9900    0.9450 C   0  0  0  0  0  0  0  0  0  0  0  0
    9.1930    3.7410    0.1150 O   0  0  0  0  0  0  0  0  0  0  0  0
   10.2940    3.3420    2.0560 O   0  0  0  0  0  1  0  0  0  0  0  0
    6.6080   -5.2700    2.3250 O   0  0  0  0  0  0  0  0  0  0  0  0
    5.7800   -6.1780    1.7020 C   0  0  0  0  0  0  0  0  0  0  0  0
    5.7710   -7.4760    2.2120 C   0  0  0  0  0  3  0  0  0  0  0  0
    4.9790   -8.4550    1.6100 C   0  0  0  0  0  3  0  0  0  0  0  0
    4.2090   -8.1370    0.4900 C   0  0  0  0  0  3  0  0  0  0  0  0
    4.2370   -6.8430   -0.0330 C   0  0  0  0  0  3  0  0  0  0  0  0
    5.0290   -5.8630    0.5660 C   0  0  0  0  0  3  0  0  0  0  0  0
  1  6  1  0  0  0  0
  2  1  2  0  0  0  0
  2  3  1  0  0  0  0
  3  4  2  0  0  0  0
  4  5  1  0  0  0  0
  4 19  1  0  0  0  0
  6  5  2  0  0  0  0
  7  8  2  0  0  0  0
  8  1  1  0  0  0  0
  9  8  1  0  0  0  0
  9 10  1  0  0  0  0
 10 11  2  0  0  0  0
 11 12  1  0  0  0  0
 13 16  1  0  0  0  0
 13 12  2  0  0  0  0
 14 10  1  0  0  0  0
 14 13  1  0  0  0  0
 15  9  1  0  0  0  0
 16 18  1  0  0  0  0
 17 16  2  0  0  0  0
 20 21  1  0  0  0  0
 20 19  1  0  0  0  0
 22 21  2  0  0  0  0
 23 22  1  0  0  0  0
 24 23  2  0  0  0  0
 24 25  1  0  0  0  0
 25 20  2  0  0  0  0
M  END
>  <minimizedAffinity>
-6.28493071

$$$$
