
 OpenBabel09122222393D

 25 27  0  0  0  0  0  0  0  0999 V2000
    9.4280   -2.1080    2.7920 C   0  0  0  0  0  0  0  0  0  0  0  0
    8.8850   -1.1970    1.8780 C   0  0  0  0  0  3  0  0  0  0  0  0
    9.2810   -1.2400    0.5400 C   0  0  0  0  0  3  0  0  0  0  0  0
   10.2200   -2.1830    0.1210 C   0  0  0  0  0  0  0  0  0  0  0  0
   10.8040   -3.0580    1.0420 C   0  0  0  0  0  3  0  0  0  0  0  0
   10.4080   -3.0200    2.3800 C   0  0  0  0  0  3  0  0  0  0  0  0
    9.8870   -1.4990    4.9900 O   0  0  0  0  0  0  0  0  0  0  0  0
    9.0840   -2.0460    4.2300 C   0  0  0  0  0  0  0  0  0  0  0  0
    7.9090   -2.5430    4.7250 N   0  0  0  0  0  0  0  0  0  0  0  0
    7.0240   -3.3640    4.0880 C   0  0  0  0  0  0  0  0  0  0  0  0
    7.0860   -3.8800    2.8890 N   0  0  0  0  0  0  0  0  0  0  0  0
    5.9540   -4.6580    2.6870 C   0  0  0  0  0  3  0  0  0  0  0  0
    5.0720   -4.7120    3.7450 C   0  0  0  0  0  0  0  0  0  0  0  0
    5.6700   -3.7730    5.0410 S   0  0  0  0  0  0  0  0  0  0  0  0
    7.7150   -2.3530    5.6960 H   0  0  0  0  0  0  0  0  0  0  0  0
    3.8100   -5.4740    3.7340 C   0  0  0  0  0  0  0  0  0  0  0  0
    3.7810   -6.5360    3.0400 O   0  0  0  0  0  0  0  0  0  0  0  0
    2.8590   -4.9970    4.4260 O   0  0  0  0  0  1  0  0  0  0  0  0
   10.5930   -2.1520   -1.2030 O   0  0  0  0  0  0  0  0  0  0  0  0
   11.3070   -1.0530   -1.6300 C   0  0  0  0  0  0  0  0  0  0  0  0
   10.6320    0.1680   -1.6470 C   0  0  0  0  0  3  0  0  0  0  0  0
   11.2840    1.3160   -2.0980 C   0  0  0  0  0  3  0  0  0  0  0  0
   12.6040    1.2380   -2.5460 C   0  0  0  0  0  3  0  0  0  0  0  0
   13.2700    0.0110   -2.5510 C   0  0  0  0  0  3  0  0  0  0  0  0
   12.6200   -1.1390   -2.1010 C   0  0  0  0  0  3  0  0  0  0  0  0
  1  8  1  0  0  0  0
  2  1  2  0  0  0  0
  3  2  1  0  0  0  0
  4  3  2  0  0  0  0
  4  5  1  0  0  0  0
  5  6  2  0  0  0  0
  6  1  1  0  0  0  0
  8  9  1  0  0  0  0
  8  7  2  0  0  0  0
  9 15  1  0  0  0  0
 10  9  1  0  0  0  0
 10 14  1  0  0  0  0
 11 10  2  0  0  0  0
 12 11  1  0  0  0  0
 12 13  2  0  0  0  0
 13 14  1  0  0  0  0
 16 13  1  0  0  0  0
 16 18  1  0  0  0  0
 17 16  2  0  0  0  0
 19  4  1  0  0  0  0
 20 19  1  0  0  0  0
 21 20  1  0  0  0  0
 22 21  2  0  0  0  0
 23 22  1  0  0  0  0
 24 23  2  0  0  0  0
 24 25  1  0  0  0  0
 25 20  2  0  0  0  0
M  END
>  <minimizedAffinity>
-6.68537045

$$$$
