
 OpenBabel09122222393D

 25 27  0  0  0  0  0  0  0  0999 V2000
    9.5440   -2.7780    1.4900 C   0  0  0  0  0  0  0  0  0  0  0  0
   10.0280   -2.9840    2.7880 C   0  0  0  0  0  3  0  0  0  0  0  0
   10.0120   -1.9340    3.7080 C   0  0  0  0  0  3  0  0  0  0  0  0
    9.5210   -0.6840    3.3290 C   0  0  0  0  0  0  0  0  0  0  0  0
    9.0880   -0.4610    2.0180 C   0  0  0  0  0  3  0  0  0  0  0  0
    9.1000   -1.5090    1.0970 C   0  0  0  0  0  3  0  0  0  0  0  0
   10.4470   -3.7320   -0.4290 O   0  0  0  0  0  0  0  0  0  0  0  0
    9.6120   -3.8480    0.4700 C   0  0  0  0  0  0  0  0  0  0  0  0
    8.8080   -4.9550    0.5150 N   0  0  0  0  0  0  0  0  0  0  0  0
    7.6970   -5.1410    1.2860 C   0  0  0  0  0  0  0  0  0  0  0  0
    7.1310   -4.3260    2.1360 N   0  0  0  0  0  0  0  0  0  0  0  0
    6.0190   -4.9580    2.6760 C   0  0  0  0  0  3  0  0  0  0  0  0
    5.7730   -6.2310    2.2100 C   0  0  0  0  0  0  0  0  0  0  0  0
    6.9570   -6.6600    1.0550 S   0  0  0  0  0  0  0  0  0  0  0  0
    9.0050   -5.6790   -0.1580 H   0  0  0  0  0  0  0  0  0  0  0  0
    4.6500   -7.0740    2.6570 C   0  0  0  0  0  0  0  0  0  0  0  0
    3.8920   -7.5540    1.7600 O   0  0  0  0  0  0  0  0  0  0  0  0
    4.5410   -7.2470    3.9100 O   0  0  0  0  0  1  0  0  0  0  0  0
    9.5630    0.3180    4.2710 O   0  0  0  0  0  0  0  0  0  0  0  0
   10.4420    1.3560    4.0480 C   0  0  0  0  0  0  0  0  0  0  0  0
   11.3910    1.6010    5.0410 C   0  0  0  0  0  3  0  0  0  0  0  0
   12.2920    2.6560    4.8960 C   0  0  0  0  0  3  0  0  0  0  0  0
   12.2330    3.4730    3.7660 C   0  0  0  0  0  3  0  0  0  0  0  0
   11.2670    3.2410    2.7850 C   0  0  0  0  0  3  0  0  0  0  0  0
   10.3640    2.1870    2.9280 C   0  0  0  0  0  3  0  0  0  0  0  0
  1  2  1  0  0  0  0
  2  3  2  0  0  0  0
  4  3  1  0  0  0  0
  4 19  1  0  0  0  0
  5  4  2  0  0  0  0
  6  1  2  0  0  0  0
  6  5  1  0  0  0  0
  7  8  2  0  0  0  0
  8  9  1  0  0  0  0
  8  1  1  0  0  0  0
  9 10  1  0  0  0  0
 10 11  2  0  0  0  0
 11 12  1  0  0  0  0
 13 16  1  0  0  0  0
 13 12  2  0  0  0  0
 14 10  1  0  0  0  0
 14 13  1  0  0  0  0
 15  9  1  0  0  0  0
 16 18  1  0  0  0  0
 17 16  2  0  0  0  0
 20 19  1  0  0  0  0
 20 21  1  0  0  0  0
 22 21  2  0  0  0  0
 23 22  1  0  0  0  0
 24 25  1  0  0  0  0
 24 23  2  0  0  0  0
 25 20  2  0  0  0  0
M  END
>  <minimizedAffinity>
-6.54948902

$$$$
