
 OpenBabel09122222393D

 25 27  0  0  0  0  0  0  0  0999 V2000
    5.8620   -5.7460    0.2800 C   0  0  0  0  0  0  0  0  0  0  0  0
    6.8770   -5.7140   -0.6850 C   0  0  0  0  0  3  0  0  0  0  0  0
    8.1050   -5.1240   -0.3800 C   0  0  0  0  0  3  0  0  0  0  0  0
    8.3140   -4.5640    0.8800 C   0  0  0  0  0  0  0  0  0  0  0  0
    7.2850   -4.5470    1.8280 C   0  0  0  0  0  3  0  0  0  0  0  0
    6.0570   -5.1380    1.5260 C   0  0  0  0  0  3  0  0  0  0  0  0
    3.8120   -5.6690   -0.8150 O   0  0  0  0  0  0  0  0  0  0  0  0
    4.5260   -6.3000   -0.0330 C   0  0  0  0  0  0  0  0  0  0  0  0
    4.0830   -7.4850    0.4890 N   0  0  0  0  0  0  0  0  0  0  0  0
    4.6290   -8.1900    1.5210 C   0  0  0  0  0  0  0  0  0  0  0  0
    5.6700   -7.9090    2.2600 N   0  0  0  0  0  0  0  0  0  0  0  0
    5.8350   -8.9250    3.1910 C   0  0  0  0  0  3  0  0  0  0  0  0
    4.9070   -9.9430    3.1330 C   0  0  0  0  0  0  0  0  0  0  0  0
    3.7840   -9.6260    1.8850 S   0  0  0  0  0  0  0  0  0  0  0  0
    3.2080   -7.8340    0.1290 H   0  0  0  0  0  0  0  0  0  0  0  0
    4.9070  -11.1160    4.0260 C   0  0  0  0  0  0  0  0  0  0  0  0
    6.0340  -11.6100    4.3340 O   0  0  0  0  0  0  0  0  0  0  0  0
    3.7700  -11.5290    4.4110 O   0  0  0  0  0  1  0  0  0  0  0  0
    9.5340   -3.9690    1.1080 O   0  0  0  0  0  0  0  0  0  0  0  0
    9.5390   -2.8110    1.8530 C   0  0  0  0  0  0  0  0  0  0  0  0
    9.8650   -2.9320    3.2040 C   0  0  0  0  0  3  0  0  0  0  0  0
    9.8600   -1.8040    4.0260 C   0  0  0  0  0  3  0  0  0  0  0  0
    9.5130   -0.5600    3.4980 C   0  0  0  0  0  3  0  0  0  0  0  0
    9.1640   -0.4430    2.1510 C   0  0  0  0  0  3  0  0  0  0  0  0
    9.1680   -1.5700    1.3280 C   0  0  0  0  0  3  0  0  0  0  0  0
  1  6  1  0  0  0  0
  2  3  1  0  0  0  0
  2  1  2  0  0  0  0
  3  4  2  0  0  0  0
  4 19  1  0  0  0  0
  4  5  1  0  0  0  0
  6  5  2  0  0  0  0
  7  8  2  0  0  0  0
  8  1  1  0  0  0  0
  8  9  1  0  0  0  0
  9 10  1  0  0  0  0
 10 14  1  0  0  0  0
 10 11  2  0  0  0  0
 11 12  1  0  0  0  0
 13 12  2  0  0  0  0
 13 16  1  0  0  0  0
 14 13  1  0  0  0  0
 15  9  1  0  0  0  0
 16 17  2  0  0  0  0
 16 18  1  0  0  0  0
 19 20  1  0  0  0  0
 20 21  1  0  0  0  0
 21 22  2  0  0  0  0
 23 22  1  0  0  0  0
 24 23  2  0  0  0  0
 25 20  2  0  0  0  0
 25 24  1  0  0  0  0
M  END
>  <minimizedAffinity>
-5.85043001

$$$$
