
 OpenBabel09122222393D

 25 27  0  0  0  0  0  0  0  0999 V2000
    7.0810   -5.7480    0.3130 C   0  0  0  0  0  0  0  0  0  0  0  0
    7.5940   -6.8130    1.0640 C   0  0  0  0  0  3  0  0  0  0  0  0
    6.7440   -7.5500    1.8900 C   0  0  0  0  0  3  0  0  0  0  0  0
    5.3910   -7.2180    1.9700 C   0  0  0  0  0  0  0  0  0  0  0  0
    4.8870   -6.1220    1.2630 C   0  0  0  0  0  3  0  0  0  0  0  0
    5.7340   -5.3850    0.4330 C   0  0  0  0  0  3  0  0  0  0  0  0
    8.0980   -5.2030   -1.7070 O   0  0  0  0  0  0  0  0  0  0  0  0
    7.9670   -4.9020   -0.5180 C   0  0  0  0  0  0  0  0  0  0  0  0
    8.6080   -3.8000   -0.0200 N   0  0  0  0  0  0  0  0  0  0  0  0
    8.7590   -3.4530    1.2910 C   0  0  0  0  0  0  0  0  0  0  0  0
    8.3570   -4.0770    2.3670 N   0  0  0  0  0  0  0  0  0  0  0  0
    8.7500   -3.3390    3.4750 C   0  0  0  0  0  3  0  0  0  0  0  0
    9.4460   -2.1810    3.2020 C   0  0  0  0  0  0  0  0  0  0  0  0
    9.6280   -2.0020    1.5130 S   0  0  0  0  0  0  0  0  0  0  0  0
    9.0970   -3.2260   -0.6890 H   0  0  0  0  0  0  0  0  0  0  0  0
    9.9470   -1.2540    4.2340 C   0  0  0  0  0  0  0  0  0  0  0  0
   10.8170   -1.7000    5.0410 O   0  0  0  0  0  1  0  0  0  0  0  0
    9.4590   -0.0820    4.2210 O   0  0  0  0  0  0  0  0  0  0  0  0
    4.6120   -7.9620    2.8270 O   0  0  0  0  0  0  0  0  0  0  0  0
    4.1840   -9.1930    2.3810 C   0  0  0  0  0  0  0  0  0  0  0  0
    3.2110   -9.1960    1.3810 C   0  0  0  0  0  3  0  0  0  0  0  0
    2.7090  -10.4070    0.9040 C   0  0  0  0  0  3  0  0  0  0  0  0
    3.1680  -11.6120    1.4380 C   0  0  0  0  0  3  0  0  0  0  0  0
    4.1250  -11.6060    2.4550 C   0  0  0  0  0  3  0  0  0  0  0  0
    4.6290  -10.3960    2.9350 C   0  0  0  0  0  3  0  0  0  0  0  0
  1  6  2  0  0  0  0
  1  2  1  0  0  0  0
  2  3  2  0  0  0  0
  3  4  1  0  0  0  0
  4 19  1  0  0  0  0
  5  4  2  0  0  0  0
  6  5  1  0  0  0  0
  7  8  2  0  0  0  0
  8  9  1  0  0  0  0
  8  1  1  0  0  0  0
  9 10  1  0  0  0  0
 10 14  1  0  0  0  0
 10 11  2  0  0  0  0
 11 12  1  0  0  0  0
 13 12  2  0  0  0  0
 13 16  1  0  0  0  0
 14 13  1  0  0  0  0
 15  9  1  0  0  0  0
 16 17  1  0  0  0  0
 18 16  2  0  0  0  0
 20 19  1  0  0  0  0
 20 25  1  0  0  0  0
 21 20  2  0  0  0  0
 22 21  1  0  0  0  0
 22 23  2  0  0  0  0
 23 24  1  0  0  0  0
 24 25  2  0  0  0  0
M  END
>  <minimizedAffinity>
-6.72126007

$$$$
