
 OpenBabel09092210413D

 27 29  0  0  1  0  0  0  0  0999 V2000
    2.0940    4.8620   -1.0820 C   0  0  0  0  0  0  0  0  0  0  0  0
    2.8930    5.7410   -1.8900 C   0  0  0  0  0  3  0  0  0  0  0  0
    2.6570    5.6120   -3.2450 C   0  0  0  0  0  0  0  0  0  0  0  0
    1.4580    4.4290   -3.5350 S   0  0  0  0  0  0  0  0  0  0  0  0
    1.1860    4.1580   -1.8590 C   0  0  0  0  0  0  0  0  0  0  0  0
    3.3140    6.3070   -4.3590 C   0  0  0  0  0  0  0  0  0  0  0  0
    3.3980    5.7310   -5.6360 C   0  0  0  0  0  3  0  0  0  0  0  0
    4.0100    6.4140   -6.6910 C   0  0  0  0  0  3  0  0  0  0  0  0
    4.5430    7.6840   -6.4830 C   0  0  0  0  0  3  0  0  0  0  0  0
    4.4670    8.2710   -5.2220 C   0  0  0  0  0  3  0  0  0  0  0  0
    3.8540    7.5880   -4.1680 C   0  0  0  0  0  3  0  0  0  0  0  0
    2.2250    4.7940    0.3290 N   0  0  0  0  0  0  0  0  0  0  0  0
    2.9360    3.6840    0.8130 C   0  0  0  0  0  0  0  0  0  0  0  0
    3.6700    3.0000    0.0820 O   0  0  0  0  0  0  0  0  0  0  0  0
    2.8710    3.3340    2.3050 C   0  0  1  0  0  3  0  0  0  0  0  0
    2.8620    1.8130    2.5020 C   0  0  0  0  0  2  0  0  0  0  0  0
    2.8660    1.4310    3.9820 C   0  0  0  0  0  2  0  0  0  0  0  0
    4.0410    2.0650    4.7340 C   0  0  2  0  0  3  0  0  0  0  0  0
    3.9830    1.7150    6.2200 C   0  0  0  0  0  1  0  0  0  0  0  0
    4.0580    3.5850    4.5340 C   0  0  0  0  0  2  0  0  0  0  0  0
    4.0670    3.9520    3.0520 C   0  0  0  0  0  2  0  0  0  0  0  0
    2.7490    7.0420    1.3810 C   0  0  0  0  0  1  0  0  0  0  0  0
    1.7170    5.9470    1.1130 C   0  0  0  0  0  3  0  0  0  0  0  0
    0.3880    6.4910    0.5830 C   0  0  0  0  0  1  0  0  0  0  0  0
    0.0470    3.3220   -1.3730 C   0  0  0  0  0  0  0  0  0  0  0  0
   -1.1040    3.8650   -1.3380 O   0  0  0  0  0  0  0  0  0  0  0  0
    0.3060    2.1470   -0.9590 O   0  0  0  0  0  1  0  0  0  0  0  0
  1 12  1  0  0  0  0
  2  1  1  0  0  0  0
  3  2  2  0  0  0  0
  4  3  1  0  0  0  0
  4  5  1  0  0  0  0
  5 25  1  0  0  0  0
  5  1  2  0  0  0  0
  6 11  1  0  0  0  0
  6  3  1  0  0  0  0
  7  6  2  0  0  0  0
  8  9  2  0  0  0  0
  8  7  1  0  0  0  0
  9 10  1  0  0  0  0
 10 11  2  0  0  0  0
 12 13  1  0  0  0  0
 12 23  1  0  0  0  0
 14 13  2  0  0  0  0
 15 13  1  6  0  0  0
 15 16  1  0  0  0  0
 15 21  1  0  0  0  0
 16 17  1  0  0  0  0
 17 18  1  0  0  0  0
 18 19  1  1  0  0  0
 20 18  1  0  0  0  0
 21 20  1  0  0  0  0
 23 22  1  0  0  0  0
 24 23  1  0  0  0  0
 25 26  2  0  0  0  0
 25 27  1  0  0  0  0
M  END
>  <minimizedAffinity>
-4.16452503

$$$$
