
 OpenBabel09092210413D

 27 29  0  0  1  0  0  0  0  0999 V2000
    1.4420    4.3920   -0.7090 C   0  0  0  0  0  0  0  0  0  0  0  0
    1.5010    5.0460   -1.9870 C   0  0  0  0  0  3  0  0  0  0  0  0
    2.7890    5.2590   -2.4380 C   0  0  0  0  0  0  0  0  0  0  0  0
    3.9270    4.6560   -1.3140 S   0  0  0  0  0  0  0  0  0  0  0  0
    2.7090    4.0290   -0.2750 C   0  0  0  0  0  0  0  0  0  0  0  0
    3.2280    5.9320   -3.6670 C   0  0  0  0  0  0  0  0  0  0  0  0
    3.3490    5.2390   -4.8810 C   0  0  0  0  0  3  0  0  0  0  0  0
    3.7510    5.9000   -6.0460 C   0  0  0  0  0  3  0  0  0  0  0  0
    4.0330    7.2640   -6.0110 C   0  0  0  0  0  3  0  0  0  0  0  0
    3.9150    7.9670   -4.8150 C   0  0  0  0  0  3  0  0  0  0  0  0
    3.5130    7.3060   -3.6510 C   0  0  0  0  0  3  0  0  0  0  0  0
    0.2180    4.1340   -0.0400 N   0  0  0  0  0  0  0  0  0  0  0  0
   -0.4720    2.9900   -0.4700 C   0  0  0  0  0  0  0  0  0  0  0  0
    0.0780    2.0980   -1.1350 O   0  0  0  0  0  0  0  0  0  0  0  0
   -1.9340    2.7850   -0.0550 C   0  0  1  0  0  3  0  0  0  0  0  0
   -2.8750    3.5360   -1.0040 C   0  0  0  0  0  2  0  0  0  0  0  0
   -4.3450    3.2960   -0.6580 C   0  0  0  0  0  2  0  0  0  0  0  0
   -4.6890    1.8030   -0.6260 C   0  0  2  0  0  3  0  0  0  0  0  0
   -6.1460    1.5940   -0.2170 C   0  0  0  0  0  1  0  0  0  0  0  0
   -3.7460    1.0470    0.3180 C   0  0  0  0  0  2  0  0  0  0  0  0
   -2.2840    1.2860   -0.0480 C   0  0  0  0  0  2  0  0  0  0  0  0
    0.1730    4.4160    2.4810 C   0  0  0  0  0  1  0  0  0  0  0  0
   -0.1260    5.0130    1.1050 C   0  0  0  0  0  3  0  0  0  0  0  0
    0.4000    6.4410    0.9430 C   0  0  0  0  0  1  0  0  0  0  0  0
    3.0430    3.1460    0.8830 C   0  0  0  0  0  0  0  0  0  0  0  0
    3.7110    3.6610    1.8370 O   0  0  0  0  0  1  0  0  0  0  0  0
    2.7040    1.9220    0.8150 O   0  0  0  0  0  0  0  0  0  0  0  0
  1  5  2  0  0  0  0
  1 12  1  0  0  0  0
  2  1  1  0  0  0  0
  3  2  2  0  0  0  0
  3  4  1  0  0  0  0
  4  5  1  0  0  0  0
  5 25  1  0  0  0  0
  6 11  1  0  0  0  0
  6  3  1  0  0  0  0
  7  6  2  0  0  0  0
  8  9  2  0  0  0  0
  8  7  1  0  0  0  0
  9 10  1  0  0  0  0
 10 11  2  0  0  0  0
 12 23  1  0  0  0  0
 13 12  1  0  0  0  0
 14 13  2  0  0  0  0
 15 13  1  6  0  0  0
 15 21  1  0  0  0  0
 16 17  1  0  0  0  0
 16 15  1  0  0  0  0
 17 18  1  0  0  0  0
 18 19  1  1  0  0  0
 18 20  1  0  0  0  0
 21 20  1  0  0  0  0
 23 22  1  0  0  0  0
 24 23  1  0  0  0  0
 25 26  1  0  0  0  0
 27 25  2  0  0  0  0
M  END
>  <minimizedAffinity>
-3.56456351

$$$$
