
 OpenBabel09092210413D

 27 29  0  0  1  0  0  0  0  0999 V2000
    2.6610    3.9400    0.6920 C   0  0  0  0  0  0  0  0  0  0  0  0
    2.4430    2.6210    1.2170 C   0  0  0  0  0  3  0  0  0  0  0  0
    3.0150    2.4200    2.4580 C   0  0  0  0  0  0  0  0  0  0  0  0
    3.8080    3.8370    2.9910 S   0  0  0  0  0  0  0  0  0  0  0  0
    3.3110    4.7450    1.6170 C   0  0  0  0  0  0  0  0  0  0  0  0
    3.0360    1.1960    3.2690 C   0  0  0  0  0  0  0  0  0  0  0  0
    1.9570    0.3000    3.2730 C   0  0  0  0  0  3  0  0  0  0  0  0
    2.0010   -0.8710    4.0360 C   0  0  0  0  0  3  0  0  0  0  0  0
    3.1270   -1.1620    4.8030 C   0  0  0  0  0  3  0  0  0  0  0  0
    4.2080   -0.2840    4.8080 C   0  0  0  0  0  3  0  0  0  0  0  0
    4.1630    0.8870    4.0450 C   0  0  0  0  0  3  0  0  0  0  0  0
    2.2090    4.3340   -0.5940 N   0  0  0  0  0  0  0  0  0  0  0  0
    3.1970    4.3770   -1.5900 C   0  0  0  0  0  0  0  0  0  0  0  0
    4.2940    3.8110   -1.4580 O   0  0  0  0  0  0  0  0  0  0  0  0
    2.9030    5.0820   -2.9200 C   0  0  1  0  0  3  0  0  0  0  0  0
    3.3780    6.5390   -2.8750 C   0  0  0  0  0  2  0  0  0  0  0  0
    3.1610    7.2510   -4.2100 C   0  0  0  0  0  2  0  0  0  0  0  0
    3.8240    6.5030   -5.3720 C   0  0  2  0  0  3  0  0  0  0  0  0
    3.5370    7.2040   -6.6990 C   0  0  0  0  0  1  0  0  0  0  0  0
    3.3550    5.0440   -5.4170 C   0  0  0  0  0  2  0  0  0  0  0  0
    3.5900    4.3420   -4.0820 C   0  0  0  0  0  2  0  0  0  0  0  0
    0.0030    3.3100   -1.3140 C   0  0  0  0  0  1  0  0  0  0  0  0
    0.7480    4.5280   -0.7680 C   0  0  0  0  0  3  0  0  0  0  0  0
    0.0750    5.1410    0.4620 C   0  0  0  0  0  1  0  0  0  0  0  0
    3.5180    6.2230    1.5350 C   0  0  0  0  0  0  0  0  0  0  0  0
    4.6610    6.6330    1.1540 O   0  0  0  0  0  0  0  0  0  0  0  0
    2.5680    6.9780    1.9180 O   0  0  0  0  0  1  0  0  0  0  0  0
  1  2  1  0  0  0  0
  1  5  2  0  0  0  0
  2  3  2  0  0  0  0
  3  4  1  0  0  0  0
  3  6  1  0  0  0  0
  5  4  1  0  0  0  0
  6  7  2  0  0  0  0
  6 11  1  0  0  0  0
  7  8  1  0  0  0  0
  8  9  2  0  0  0  0
  9 10  1  0  0  0  0
 11 10  2  0  0  0  0
 12  1  1  0  0  0  0
 13 14  2  0  0  0  0
 13 12  1  0  0  0  0
 15 16  1  0  0  0  0
 15 13  1  1  0  0  0
 17 16  1  0  0  0  0
 18 19  1  6  0  0  0
 18 17  1  0  0  0  0
 20 18  1  0  0  0  0
 20 21  1  0  0  0  0
 21 15  1  0  0  0  0
 22 23  1  0  0  0  0
 23 12  1  0  0  0  0
 23 24  1  0  0  0  0
 25  5  1  0  0  0  0
 25 27  1  0  0  0  0
 26 25  2  0  0  0  0
M  END
>  <minimizedAffinity>
-3.74763012

$$$$
