
 OpenBabel09082221083D

 27 29  0  0  1  0  0  0  0  0999 V2000
    2.0940    4.8620   -1.0820 C   0  0  0  0  0  0  0  0  0  0  0  0
    2.8930    5.7410   -1.8900 C   0  0  0  0  0  3  0  0  0  0  0  0
    2.6570    5.6120   -3.2450 C   0  0  0  0  0  0  0  0  0  0  0  0
    1.4580    4.4290   -3.5350 S   0  0  0  0  0  0  0  0  0  0  0  0
    1.1860    4.1580   -1.8590 C   0  0  0  0  0  0  0  0  0  0  0  0
    3.3140    6.3070   -4.3590 C   0  0  0  0  0  0  0  0  0  0  0  0
    3.3980    5.7310   -5.6360 C   0  0  0  0  0  3  0  0  0  0  0  0
    4.0100    6.4140   -6.6910 C   0  0  0  0  0  3  0  0  0  0  0  0
    4.5430    7.6840   -6.4830 C   0  0  0  0  0  3  0  0  0  0  0  0
    4.4670    8.2710   -5.2220 C   0  0  0  0  0  3  0  0  0  0  0  0
    3.8540    7.5880   -4.1680 C   0  0  0  0  0  3  0  0  0  0  0  0
    2.2250    4.7940    0.3290 N   0  0  0  0  0  0  0  0  0  0  0  0
    2.9360    3.6840    0.8130 C   0  0  0  0  0  0  0  0  0  0  0  0
    3.6700    3.0000    0.0820 O   0  0  0  0  0  0  0  0  0  0  0  0
    2.8710    3.3340    2.3050 C   0  0  1  0  0  3  0  0  0  0  0  0
    2.8620    1.8130    2.5020 C   0  0  0  0  0  2  0  0  0  0  0  0
    2.8660    1.4310    3.9820 C   0  0  0  0  0  2  0  0  0  0  0  0
    4.0410    2.0650    4.7340 C   0  0  2  0  0  3  0  0  0  0  0  0
    3.9830    1.7150    6.2200 C   0  0  0  0  0  1  0  0  0  0  0  0
    4.0580    3.5850    4.5340 C   0  0  0  0  0  2  0  0  0  0  0  0
    4.0670    3.9520    3.0520 C   0  0  0  0  0  2  0  0  0  0  0  0
    2.7490    7.0420    1.3810 C   0  0  0  0  0  1  0  0  0  0  0  0
    1.7170    5.9470    1.1130 C   0  0  0  0  0  3  0  0  0  0  0  0
    0.3880    6.4910    0.5830 C   0  0  0  0  0  1  0  0  0  0  0  0
    0.0470    3.3220   -1.3730 C   0  0  0  0  0  0  0  0  0  0  0  0
   -1.1040    3.8650   -1.3380 O   0  0  0  0  0  0  0  0  0  0  0  0
    0.3060    2.1470   -0.9590 O   0  0  0  0  0  1  0  0  0  0  0  0
  1 12  1  0  0  0  0
  2  1  1  0  0  0  0
  3  2  2  0  0  0  0
  4  3  1  0  0  0  0
  4  5  1  0  0  0  0
  5 25  1  0  0  0  0
  5  1  2  0  0  0  0
  6 11  1  0  0  0  0
  6  3  1  0  0  0  0
  7  6  2  0  0  0  0
  8  9  2  0  0  0  0
  8  7  1  0  0  0  0
  9 10  1  0  0  0  0
 10 11  2  0  0  0  0
 12 13  1  0  0  0  0
 12 23  1  0  0  0  0
 14 13  2  0  0  0  0
 15 13  1  6  0  0  0
 15 16  1  0  0  0  0
 15 21  1  0  0  0  0
 16 17  1  0  0  0  0
 17 18  1  0  0  0  0
 18 19  1  1  0  0  0
 20 18  1  0  0  0  0
 21 20  1  0  0  0  0
 23 22  1  0  0  0  0
 24 23  1  0  0  0  0
 25 26  2  0  0  0  0
 25 27  1  0  0  0  0
M  END
>  <minimizedAffinity>
-4.16452503

$$$$

 OpenBabel09082221083D

 27 29  0  0  1  0  0  0  0  0999 V2000
    2.0610    4.8490   -1.0860 C   0  0  0  0  0  0  0  0  0  0  0  0
    2.8560    5.7390   -1.8860 C   0  0  0  0  0  3  0  0  0  0  0  0
    2.6260    5.6150   -3.2420 C   0  0  0  0  0  0  0  0  0  0  0  0
    1.4380    4.4240   -3.5440 S   0  0  0  0  0  0  0  0  0  0  0  0
    1.1620    4.1410   -1.8700 C   0  0  0  0  0  0  0  0  0  0  0  0
    3.2820    6.3210   -4.3500 C   0  0  0  0  0  0  0  0  0  0  0  0
    3.8670    7.5840   -4.1720 C   0  0  0  0  0  3  0  0  0  0  0  0
    4.5040    8.2350   -5.2330 C   0  0  0  0  0  3  0  0  0  0  0  0
    4.5680    7.6280   -6.4850 C   0  0  0  0  0  3  0  0  0  0  0  0
    3.9940    6.3740   -6.6790 C   0  0  0  0  0  3  0  0  0  0  0  0
    3.3570    5.7240   -5.6180 C   0  0  0  0  0  3  0  0  0  0  0  0
    2.1870    4.7740    0.3250 N   0  0  0  0  0  0  0  0  0  0  0  0
    2.9220    3.6780    0.8050 C   0  0  0  0  0  0  0  0  0  0  0  0
    3.6740    3.0160    0.0730 O   0  0  0  0  0  0  0  0  0  0  0  0
    2.8580    3.3160    2.2940 C   0  0  1  0  0  3  0  0  0  0  0  0
    2.8590    1.7940    2.4800 C   0  0  0  0  0  2  0  0  0  0  0  0
    2.8650    1.4010    3.9570 C   0  0  0  0  0  2  0  0  0  0  0  0
    4.0350    2.0370    4.7150 C   0  0  2  0  0  3  0  0  0  0  0  0
    3.9790    1.6760    6.1980 C   0  0  0  0  0  1  0  0  0  0  0  0
    4.0410    3.5590    4.5260 C   0  0  0  0  0  2  0  0  0  0  0  0
    4.0490    3.9370    3.0470 C   0  0  0  0  0  2  0  0  0  0  0  0
    2.6570    7.0200    1.4060 C   0  0  0  0  0  1  0  0  0  0  0  0
    1.6480    5.9100    1.1140 C   0  0  0  0  0  3  0  0  0  0  0  0
    0.3170    6.4360    0.5730 C   0  0  0  0  0  1  0  0  0  0  0  0
    0.0280    3.2930   -1.3940 C   0  0  0  0  0  0  0  0  0  0  0  0
    0.3110    2.1320   -0.9540 O   0  0  0  0  0  1  0  0  0  0  0  0
   -1.1530    3.7510   -1.5220 O   0  0  0  0  0  0  0  0  0  0  0  0
  1 12  1  0  0  0  0
  2  1  1  0  0  0  0
  3  2  2  0  0  0  0
  4  3  1  0  0  0  0
  4  5  1  0  0  0  0
  5 25  1  0  0  0  0
  5  1  2  0  0  0  0
  6  7  1  0  0  0  0
  6  3  1  0  0  0  0
  8  7  2  0  0  0  0
  9  8  1  0  0  0  0
 10  9  2  0  0  0  0
 10 11  1  0  0  0  0
 11  6  2  0  0  0  0
 12 13  1  0  0  0  0
 12 23  1  0  0  0  0
 14 13  2  0  0  0  0
 15 13  1  6  0  0  0
 15 16  1  0  0  0  0
 15 21  1  0  0  0  0
 16 17  1  0  0  0  0
 17 18  1  0  0  0  0
 18 19  1  1  0  0  0
 20 18  1  0  0  0  0
 21 20  1  0  0  0  0
 23 22  1  0  0  0  0
 24 23  1  0  0  0  0
 25 26  1  0  0  0  0
 27 25  2  0  0  0  0
M  END
>  <minimizedAffinity>
-4.15077066

$$$$

 OpenBabel09082221083D

 27 29  0  0  1  0  0  0  0  0999 V2000
    2.5250    5.9100   -0.4170 C   0  0  0  0  0  0  0  0  0  0  0  0
    2.5720    6.6190   -1.6650 C   0  0  0  0  0  3  0  0  0  0  0  0
    3.1810    5.9090   -2.6810 C   0  0  0  0  0  0  0  0  0  0  0  0
    3.6900    4.3760   -2.1200 S   0  0  0  0  0  0  0  0  0  0  0  0
    3.0150    4.6200   -0.5570 C   0  0  0  0  0  0  0  0  0  0  0  0
    3.4460    6.3300   -4.0620 C   0  0  0  0  0  0  0  0  0  0  0  0
    3.1490    5.4980   -5.1520 C   0  0  0  0  0  3  0  0  0  0  0  0
    3.3890    5.9220   -6.4630 C   0  0  0  0  0  3  0  0  0  0  0  0
    3.9250    7.1860   -6.6990 C   0  0  0  0  0  3  0  0  0  0  0  0
    4.2230    8.0250   -5.6290 C   0  0  0  0  0  3  0  0  0  0  0  0
    3.9820    7.6010   -4.3190 C   0  0  0  0  0  3  0  0  0  0  0  0
    1.9950    6.4840    0.7670 N   0  0  0  0  0  0  0  0  0  0  0  0
    2.9470    6.9840    1.6700 C   0  0  0  0  0  0  0  0  0  0  0  0
    4.1210    7.2100    1.3360 O   0  0  0  0  0  0  0  0  0  0  0  0
    2.5240    7.3320    3.1030 C   0  0  1  0  0  3  0  0  0  0  0  0
    2.5130    6.0760    3.9830 C   0  0  0  0  0  2  0  0  0  0  0  0
    2.1610    6.4010    5.4350 C   0  0  0  0  0  2  0  0  0  0  0  0
    3.0920    7.4650    6.0260 C   0  0  2  0  0  3  0  0  0  0  0  0
    2.6760    7.8130    7.4540 C   0  0  0  0  0  1  0  0  0  0  0  0
    3.1100    8.7210    5.1450 C   0  0  0  0  0  2  0  0  0  0  0  0
    3.4760    8.3830    3.7020 C   0  0  0  0  0  2  0  0  0  0  0  0
   -0.0400    7.9500    0.3890 C   0  0  0  0  0  1  0  0  0  0  0  0
    0.5200    6.6070    0.8590 C   0  0  0  0  0  3  0  0  0  0  0  0
   -0.2180    5.4070    0.2610 C   0  0  0  0  0  1  0  0  0  0  0  0
    2.9310    3.5130    0.4430 C   0  0  0  0  0  0  0  0  0  0  0  0
    2.0560    2.6100    0.2430 O   0  0  0  0  0  0  0  0  0  0  0  0
    3.6840    3.5770    1.4670 O   0  0  0  0  0  1  0  0  0  0  0  0
  1 12  1  0  0  0  0
  2  1  1  0  0  0  0
  3  4  1  0  0  0  0
  3  2  2  0  0  0  0
  4  5  1  0  0  0  0
  5  1  2  0  0  0  0
  5 25  1  0  0  0  0
  6  3  1  0  0  0  0
  7  6  2  0  0  0  0
  8  7  1  0  0  0  0
  9  8  2  0  0  0  0
  9 10  1  0  0  0  0
 10 11  2  0  0  0  0
 11  6  1  0  0  0  0
 12 23  1  0  0  0  0
 12 13  1  0  0  0  0
 14 13  2  0  0  0  0
 15 13  1  6  0  0  0
 15 21  1  0  0  0  0
 15 16  1  0  0  0  0
 16 17  1  0  0  0  0
 17 18  1  0  0  0  0
 18 19  1  1  0  0  0
 20 18  1  0  0  0  0
 21 20  1  0  0  0  0
 22 23  1  0  0  0  0
 24 23  1  0  0  0  0
 25 27  1  0  0  0  0
 26 25  2  0  0  0  0
M  END
>  <minimizedAffinity>
-3.85934997

$$$$

 OpenBabel09082221083D

 27 29  0  0  1  0  0  0  0  0999 V2000
    2.6610    3.9400    0.6920 C   0  0  0  0  0  0  0  0  0  0  0  0
    2.4430    2.6210    1.2170 C   0  0  0  0  0  3  0  0  0  0  0  0
    3.0150    2.4200    2.4580 C   0  0  0  0  0  0  0  0  0  0  0  0
    3.8080    3.8370    2.9910 S   0  0  0  0  0  0  0  0  0  0  0  0
    3.3110    4.7450    1.6170 C   0  0  0  0  0  0  0  0  0  0  0  0
    3.0360    1.1960    3.2690 C   0  0  0  0  0  0  0  0  0  0  0  0
    1.9570    0.3000    3.2730 C   0  0  0  0  0  3  0  0  0  0  0  0
    2.0010   -0.8710    4.0360 C   0  0  0  0  0  3  0  0  0  0  0  0
    3.1270   -1.1620    4.8030 C   0  0  0  0  0  3  0  0  0  0  0  0
    4.2080   -0.2840    4.8080 C   0  0  0  0  0  3  0  0  0  0  0  0
    4.1630    0.8870    4.0450 C   0  0  0  0  0  3  0  0  0  0  0  0
    2.2090    4.3340   -0.5940 N   0  0  0  0  0  0  0  0  0  0  0  0
    3.1970    4.3770   -1.5900 C   0  0  0  0  0  0  0  0  0  0  0  0
    4.2940    3.8110   -1.4580 O   0  0  0  0  0  0  0  0  0  0  0  0
    2.9030    5.0820   -2.9200 C   0  0  1  0  0  3  0  0  0  0  0  0
    3.3780    6.5390   -2.8750 C   0  0  0  0  0  2  0  0  0  0  0  0
    3.1610    7.2510   -4.2100 C   0  0  0  0  0  2  0  0  0  0  0  0
    3.8240    6.5030   -5.3720 C   0  0  2  0  0  3  0  0  0  0  0  0
    3.5370    7.2040   -6.6990 C   0  0  0  0  0  1  0  0  0  0  0  0
    3.3550    5.0440   -5.4170 C   0  0  0  0  0  2  0  0  0  0  0  0
    3.5900    4.3420   -4.0820 C   0  0  0  0  0  2  0  0  0  0  0  0
    0.0030    3.3100   -1.3140 C   0  0  0  0  0  1  0  0  0  0  0  0
    0.7480    4.5280   -0.7680 C   0  0  0  0  0  3  0  0  0  0  0  0
    0.0750    5.1410    0.4620 C   0  0  0  0  0  1  0  0  0  0  0  0
    3.5180    6.2230    1.5350 C   0  0  0  0  0  0  0  0  0  0  0  0
    4.6610    6.6330    1.1540 O   0  0  0  0  0  0  0  0  0  0  0  0
    2.5680    6.9780    1.9180 O   0  0  0  0  0  1  0  0  0  0  0  0
  1  2  1  0  0  0  0
  1  5  2  0  0  0  0
  2  3  2  0  0  0  0
  3  4  1  0  0  0  0
  3  6  1  0  0  0  0
  5  4  1  0  0  0  0
  6  7  2  0  0  0  0
  6 11  1  0  0  0  0
  7  8  1  0  0  0  0
  8  9  2  0  0  0  0
  9 10  1  0  0  0  0
 11 10  2  0  0  0  0
 12  1  1  0  0  0  0
 13 14  2  0  0  0  0
 13 12  1  0  0  0  0
 15 16  1  0  0  0  0
 15 13  1  1  0  0  0
 17 16  1  0  0  0  0
 18 19  1  6  0  0  0
 18 17  1  0  0  0  0
 20 18  1  0  0  0  0
 20 21  1  0  0  0  0
 21 15  1  0  0  0  0
 22 23  1  0  0  0  0
 23 12  1  0  0  0  0
 23 24  1  0  0  0  0
 25  5  1  0  0  0  0
 25 27  1  0  0  0  0
 26 25  2  0  0  0  0
M  END
>  <minimizedAffinity>
-3.74763012

$$$$

 OpenBabel09082221083D

 27 29  0  0  1  0  0  0  0  0999 V2000
    1.4420    4.3920   -0.7090 C   0  0  0  0  0  0  0  0  0  0  0  0
    1.5010    5.0460   -1.9870 C   0  0  0  0  0  3  0  0  0  0  0  0
    2.7890    5.2590   -2.4380 C   0  0  0  0  0  0  0  0  0  0  0  0
    3.9270    4.6560   -1.3140 S   0  0  0  0  0  0  0  0  0  0  0  0
    2.7090    4.0290   -0.2750 C   0  0  0  0  0  0  0  0  0  0  0  0
    3.2280    5.9320   -3.6670 C   0  0  0  0  0  0  0  0  0  0  0  0
    3.3490    5.2390   -4.8810 C   0  0  0  0  0  3  0  0  0  0  0  0
    3.7510    5.9000   -6.0460 C   0  0  0  0  0  3  0  0  0  0  0  0
    4.0330    7.2640   -6.0110 C   0  0  0  0  0  3  0  0  0  0  0  0
    3.9150    7.9670   -4.8150 C   0  0  0  0  0  3  0  0  0  0  0  0
    3.5130    7.3060   -3.6510 C   0  0  0  0  0  3  0  0  0  0  0  0
    0.2180    4.1340   -0.0400 N   0  0  0  0  0  0  0  0  0  0  0  0
   -0.4720    2.9900   -0.4700 C   0  0  0  0  0  0  0  0  0  0  0  0
    0.0780    2.0980   -1.1350 O   0  0  0  0  0  0  0  0  0  0  0  0
   -1.9340    2.7850   -0.0550 C   0  0  1  0  0  3  0  0  0  0  0  0
   -2.8750    3.5360   -1.0040 C   0  0  0  0  0  2  0  0  0  0  0  0
   -4.3450    3.2960   -0.6580 C   0  0  0  0  0  2  0  0  0  0  0  0
   -4.6890    1.8030   -0.6260 C   0  0  2  0  0  3  0  0  0  0  0  0
   -6.1460    1.5940   -0.2170 C   0  0  0  0  0  1  0  0  0  0  0  0
   -3.7460    1.0470    0.3180 C   0  0  0  0  0  2  0  0  0  0  0  0
   -2.2840    1.2860   -0.0480 C   0  0  0  0  0  2  0  0  0  0  0  0
    0.1730    4.4160    2.4810 C   0  0  0  0  0  1  0  0  0  0  0  0
   -0.1260    5.0130    1.1050 C   0  0  0  0  0  3  0  0  0  0  0  0
    0.4000    6.4410    0.9430 C   0  0  0  0  0  1  0  0  0  0  0  0
    3.0430    3.1460    0.8830 C   0  0  0  0  0  0  0  0  0  0  0  0
    3.7110    3.6610    1.8370 O   0  0  0  0  0  1  0  0  0  0  0  0
    2.7040    1.9220    0.8150 O   0  0  0  0  0  0  0  0  0  0  0  0
  1  5  2  0  0  0  0
  1 12  1  0  0  0  0
  2  1  1  0  0  0  0
  3  2  2  0  0  0  0
  3  4  1  0  0  0  0
  4  5  1  0  0  0  0
  5 25  1  0  0  0  0
  6 11  1  0  0  0  0
  6  3  1  0  0  0  0
  7  6  2  0  0  0  0
  8  9  2  0  0  0  0
  8  7  1  0  0  0  0
  9 10  1  0  0  0  0
 10 11  2  0  0  0  0
 12 23  1  0  0  0  0
 13 12  1  0  0  0  0
 14 13  2  0  0  0  0
 15 13  1  6  0  0  0
 15 21  1  0  0  0  0
 16 17  1  0  0  0  0
 16 15  1  0  0  0  0
 17 18  1  0  0  0  0
 18 19  1  1  0  0  0
 18 20  1  0  0  0  0
 21 20  1  0  0  0  0
 23 22  1  0  0  0  0
 24 23  1  0  0  0  0
 25 26  1  0  0  0  0
 27 25  2  0  0  0  0
M  END
>  <minimizedAffinity>
-3.56456351

$$$$

 OpenBabel09082221083D

 27 29  0  0  1  0  0  0  0  0999 V2000
    0.6800    3.7640   -0.4620 C   0  0  0  0  0  0  0  0  0  0  0  0
   -0.6010    3.2010   -0.1350 C   0  0  0  0  0  3  0  0  0  0  0  0
   -0.5350    2.1800    0.7930 C   0  0  0  0  0  0  0  0  0  0  0  0
    1.0830    1.9110    1.2750 S   0  0  0  0  0  0  0  0  0  0  0  0
    1.6820    3.2120    0.3240 C   0  0  0  0  0  0  0  0  0  0  0  0
   -1.6260    1.3530    1.3220 C   0  0  0  0  0  0  0  0  0  0  0  0
   -1.4110    0.4320    2.3600 C   0  0  0  0  0  3  0  0  0  0  0  0
   -2.4650   -0.3350    2.8660 C   0  0  0  0  0  3  0  0  0  0  0  0
   -3.7480   -0.1880    2.3430 C   0  0  0  0  0  3  0  0  0  0  0  0
   -3.9780    0.7230    1.3150 C   0  0  0  0  0  3  0  0  0  0  0  0
   -2.9240    1.4900    0.8100 C   0  0  0  0  0  3  0  0  0  0  0  0
    0.8410    4.7820   -1.4360 N   0  0  0  0  0  0  0  0  0  0  0  0
    1.3380    4.3520   -2.6770 C   0  0  0  0  0  0  0  0  0  0  0  0
    1.3300    3.1570   -3.0140 O   0  0  0  0  0  0  0  0  0  0  0  0
    1.8490    5.3850   -3.6890 C   0  0  1  0  0  3  0  0  0  0  0  0
    3.2180    5.9270   -3.2630 C   0  0  0  0  0  2  0  0  0  0  0  0
    3.7860    6.9110   -4.2860 C   0  0  0  0  0  2  0  0  0  0  0  0
    3.8610    6.2970   -5.6890 C   0  0  2  0  0  3  0  0  0  0  0  0
    4.3720    7.3220   -6.6990 C   0  0  0  0  0  1  0  0  0  0  0  0
    2.4940    5.7490   -6.1160 C   0  0  0  0  0  2  0  0  0  0  0  0
    1.9460    4.7590   -5.0910 C   0  0  0  0  0  2  0  0  0  0  0  0
   -1.0900    6.4250   -1.5010 C   0  0  0  0  0  1  0  0  0  0  0  0
    0.3530    6.1380   -1.0850 C   0  0  0  0  0  3  0  0  0  0  0  0
    0.6470    6.5220    0.3660 C   0  0  0  0  0  1  0  0  0  0  0  0
    3.0950    3.6850    0.4410 C   0  0  0  0  0  0  0  0  0  0  0  0
    3.9150    3.3020   -0.4550 O   0  0  0  0  0  0  0  0  0  0  0  0
    3.4080    4.3780    1.4610 O   0  0  0  0  0  1  0  0  0  0  0  0
  1  2  1  0  0  0  0
  1  5  2  0  0  0  0
  2  3  2  0  0  0  0
  3  4  1  0  0  0  0
  3  6  1  0  0  0  0
  5 25  1  0  0  0  0
  5  4  1  0  0  0  0
  6  7  1  0  0  0  0
  7  8  2  0  0  0  0
  9  8  1  0  0  0  0
 10  9  2  0  0  0  0
 11 10  1  0  0  0  0
 11  6  2  0  0  0  0
 12 23  1  0  0  0  0
 12  1  1  0  0  0  0
 13 12  1  0  0  0  0
 14 13  2  0  0  0  0
 15 16  1  0  0  0  0
 15 13  1  1  0  0  0
 17 16  1  0  0  0  0
 18 19  1  6  0  0  0
 18 17  1  0  0  0  0
 20 18  1  0  0  0  0
 20 21  1  0  0  0  0
 21 15  1  0  0  0  0
 22 23  1  0  0  0  0
 23 24  1  0  0  0  0
 25 27  1  0  0  0  0
 26 25  2  0  0  0  0
M  END
>  <minimizedAffinity>
-3.52378988

$$$$

 OpenBabel09082221083D

 27 29  0  0  1  0  0  0  0  0999 V2000
    1.7260    5.1910   -0.3760 C   0  0  0  0  0  0  0  0  0  0  0  0
    1.7770    5.9070   -1.6200 C   0  0  0  0  0  3  0  0  0  0  0  0
    2.8810    5.5980   -2.3900 C   0  0  0  0  0  0  0  0  0  0  0  0
    3.8520    4.4310   -1.6060 S   0  0  0  0  0  0  0  0  0  0  0  0
    2.7580    4.2670   -0.2900 C   0  0  0  0  0  0  0  0  0  0  0  0
    3.2810    6.1620   -3.6850 C   0  0  0  0  0  0  0  0  0  0  0  0
    3.6130    7.5190   -3.8240 C   0  0  0  0  0  3  0  0  0  0  0  0
    4.0100    8.0360   -5.0610 C   0  0  0  0  0  3  0  0  0  0  0  0
    4.0850    7.2020   -6.1740 C   0  0  0  0  0  3  0  0  0  0  0  0
    3.7610    5.8530   -6.0530 C   0  0  0  0  0  3  0  0  0  0  0  0
    3.3640    5.3360   -4.8160 C   0  0  0  0  0  3  0  0  0  0  0  0
    0.7070    5.4060    0.5870 N   0  0  0  0  0  0  0  0  0  0  0  0
   -0.4920    4.7140    0.3550 C   0  0  0  0  0  0  0  0  0  0  0  0
   -0.5600    3.7500   -0.4230 O   0  0  0  0  0  0  0  0  0  0  0  0
   -1.7550    5.1040    1.1340 C   0  0  1  0  0  3  0  0  0  0  0  0
   -2.9130    5.3980    0.1720 C   0  0  0  0  0  2  0  0  0  0  0  0
   -4.2060    5.7240    0.9200 C   0  0  0  0  0  2  0  0  0  0  0  0
   -4.5920    4.6160    1.9060 C   0  0  2  0  0  3  0  0  0  0  0  0
   -5.8520    4.9990    2.6810 C   0  0  0  0  0  1  0  0  0  0  0  0
   -3.4340    4.3150    2.8660 C   0  0  0  0  0  2  0  0  0  0  0  0
   -2.1540    3.9780    2.1060 C   0  0  0  0  0  2  0  0  0  0  0  0
    1.2460    5.4190    3.0660 C   0  0  0  0  0  1  0  0  0  0  0  0
    1.0600    6.2200    1.7760 C   0  0  0  0  0  3  0  0  0  0  0  0
    2.2010    7.2040    1.5110 C   0  0  0  0  0  1  0  0  0  0  0  0
    2.9170    3.1910    0.7350 C   0  0  0  0  0  0  0  0  0  0  0  0
    2.1980    2.1480    0.6040 O   0  0  0  0  0  0  0  0  0  0  0  0
    3.7030    3.4100    1.7110 O   0  0  0  0  0  1  0  0  0  0  0  0
  1  5  2  0  0  0  0
  1 12  1  0  0  0  0
  2  1  1  0  0  0  0
  3  2  2  0  0  0  0
  3  4  1  0  0  0  0
  4  5  1  0  0  0  0
  5 25  1  0  0  0  0
  6  3  1  0  0  0  0
  7  6  1  0  0  0  0
  8  7  2  0  0  0  0
  9 10  2  0  0  0  0
  9  8  1  0  0  0  0
 10 11  1  0  0  0  0
 11  6  2  0  0  0  0
 12 23  1  0  0  0  0
 13 12  1  0  0  0  0
 14 13  2  0  0  0  0
 15 13  1  6  0  0  0
 15 21  1  0  0  0  0
 16 17  1  0  0  0  0
 16 15  1  0  0  0  0
 17 18  1  0  0  0  0
 18 19  1  1  0  0  0
 18 20  1  0  0  0  0
 21 20  1  0  0  0  0
 23 22  1  0  0  0  0
 24 23  1  0  0  0  0
 25 27  1  0  0  0  0
 26 25  2  0  0  0  0
M  END
>  <minimizedAffinity>
-3.46204901

$$$$

 OpenBabel09082221083D

 27 29  0  0  1  0  0  0  0  0999 V2000
    1.6340    4.9330   -0.4800 C   0  0  0  0  0  0  0  0  0  0  0  0
    1.6320    5.5350   -1.7840 C   0  0  0  0  0  3  0  0  0  0  0  0
    2.8640    5.5050   -2.4070 C   0  0  0  0  0  0  0  0  0  0  0  0
    4.0220    4.7350   -1.4130 S   0  0  0  0  0  0  0  0  0  0  0  0
    2.8650    4.3590   -0.1970 C   0  0  0  0  0  0  0  0  0  0  0  0
    3.2440    6.0610   -3.7120 C   0  0  0  0  0  0  0  0  0  0  0  0
    3.6790    7.3880   -3.8450 C   0  0  0  0  0  3  0  0  0  0  0  0
    4.0550    7.8970   -5.0920 C   0  0  0  0  0  3  0  0  0  0  0  0
    4.0050    7.0820   -6.2210 C   0  0  0  0  0  3  0  0  0  0  0  0
    3.5780    5.7620   -6.1060 C   0  0  0  0  0  3  0  0  0  0  0  0
    3.2020    5.2540   -4.8590 C   0  0  0  0  0  3  0  0  0  0  0  0
    0.4860    4.9130    0.3530 N   0  0  0  0  0  0  0  0  0  0  0  0
    0.4800    5.8590    1.3900 C   0  0  0  0  0  0  0  0  0  0  0  0
    1.2380    6.8420    1.3920 O   0  0  0  0  0  0  0  0  0  0  0  0
   -0.5370    5.7280    2.5310 C   0  0  1  0  0  3  0  0  0  0  0  0
   -0.0210    4.7660    3.6070 C   0  0  0  0  0  2  0  0  0  0  0  0
   -0.9820    4.6660    4.7910 C   0  0  0  0  0  2  0  0  0  0  0  0
   -1.2880    6.0400    5.3980 C   0  0  2  0  0  3  0  0  0  0  0  0
   -2.2980    5.9140    6.5370 C   0  0  0  0  0  1  0  0  0  0  0  0
   -1.8000    7.0060    4.3230 C   0  0  0  0  0  2  0  0  0  0  0  0
   -0.8240    7.1060    3.1540 C   0  0  0  0  0  2  0  0  0  0  0  0
   -1.6790    4.6270   -0.9380 C   0  0  0  0  0  1  0  0  0  0  0  0
   -0.6170    3.9990   -0.0360 C   0  0  0  0  0  3  0  0  0  0  0  0
   -0.1190    2.6450   -0.5470 C   0  0  0  0  0  1  0  0  0  0  0  0
    3.1950    3.4580    0.9490 C   0  0  0  0  0  0  0  0  0  0  0  0
    3.4620    4.0060    2.0660 O   0  0  0  0  0  1  0  0  0  0  0  0
    3.2580    2.2070    0.7220 O   0  0  0  0  0  0  0  0  0  0  0  0
  1  5  2  0  0  0  0
  1 12  1  0  0  0  0
  2  1  1  0  0  0  0
  3  2  2  0  0  0  0
  3  4  1  0  0  0  0
  4  5  1  0  0  0  0
  5 25  1  0  0  0  0
  6  3  1  0  0  0  0
  7  6  1  0  0  0  0
  8  7  2  0  0  0  0
  9 10  2  0  0  0  0
  9  8  1  0  0  0  0
 10 11  1  0  0  0  0
 11  6  2  0  0  0  0
 12 13  1  0  0  0  0
 13 14  2  0  0  0  0
 15 13  1  6  0  0  0
 15 21  1  0  0  0  0
 15 16  1  0  0  0  0
 16 17  1  0  0  0  0
 17 18  1  0  0  0  0
 18 19  1  1  0  0  0
 20 18  1  0  0  0  0
 21 20  1  0  0  0  0
 22 23  1  0  0  0  0
 23 12  1  0  0  0  0
 24 23  1  0  0  0  0
 25 26  1  0  0  0  0
 27 25  2  0  0  0  0
M  END
>  <minimizedAffinity>
-3.41658449

$$$$

 OpenBabel09082221083D

 27 29  0  0  1  0  0  0  0  0999 V2000
    1.1860    4.4480   -2.1890 C   0  0  0  0  0  0  0  0  0  0  0  0
    2.0120    5.5460   -2.6100 C   0  0  0  0  0  3  0  0  0  0  0  0
    2.3700    5.4870   -3.9430 C   0  0  0  0  0  0  0  0  0  0  0  0
    1.6960    4.1030   -4.6850 S   0  0  0  0  0  0  0  0  0  0  0  0
    0.8520    3.6340   -3.2620 C   0  0  0  0  0  0  0  0  0  0  0  0
    3.2340    6.4010   -4.7000 C   0  0  0  0  0  0  0  0  0  0  0  0
    3.6390    7.6360   -4.1690 C   0  0  0  0  0  3  0  0  0  0  0  0
    4.4770    8.4870   -4.8960 C   0  0  0  0  0  3  0  0  0  0  0  0
    4.9250    8.1120   -6.1600 C   0  0  0  0  0  3  0  0  0  0  0  0
    4.5340    6.8890   -6.7000 C   0  0  0  0  0  3  0  0  0  0  0  0
    3.6960    6.0390   -5.9740 C   0  0  0  0  0  3  0  0  0  0  0  0
    0.7580    4.2870   -0.8460 N   0  0  0  0  0  0  0  0  0  0  0  0
    1.6220    3.5440   -0.0260 C   0  0  0  0  0  0  0  0  0  0  0  0
    2.8030    3.3260   -0.3360 O   0  0  0  0  0  0  0  0  0  0  0  0
    1.1270    3.0370    1.3350 C   0  0  1  0  0  3  0  0  0  0  0  0
    1.1430    1.5050    1.3790 C   0  0  0  0  0  2  0  0  0  0  0  0
    0.7190    0.9690    2.7460 C   0  0  0  0  0  2  0  0  0  0  0  0
    1.5720    1.5510    3.8790 C   0  0  2  0  0  3  0  0  0  0  0  0
    1.0850    1.0460    5.2360 C   0  0  0  0  0  1  0  0  0  0  0  0
    1.5630    3.0840    3.8340 C   0  0  0  0  0  2  0  0  0  0  0  0
    2.0010    3.6040    2.4680 C   0  0  0  0  0  2  0  0  0  0  0  0
   -1.6450    4.1200   -0.0510 C   0  0  0  0  0  1  0  0  0  0  0  0
   -0.4670    5.0160   -0.4340 C   0  0  0  0  0  3  0  0  0  0  0  0
   -0.1920    6.1170    0.5920 C   0  0  0  0  0  1  0  0  0  0  0  0
   -0.1570    2.5320   -3.2740 C   0  0  0  0  0  0  0  0  0  0  0  0
    0.2820    1.3380   -3.3100 O   0  0  0  0  0  1  0  0  0  0  0  0
   -1.3880    2.8530   -3.3200 O   0  0  0  0  0  0  0  0  0  0  0  0
  1 12  1  0  0  0  0
  2  1  1  0  0  0  0
  3  2  2  0  0  0  0
  4  3  1  0  0  0  0
  4  5  1  0  0  0  0
  5  1  2  0  0  0  0
  6  7  1  0  0  0  0
  6  3  1  0  0  0  0
  8  7  2  0  0  0  0
  9  8  1  0  0  0  0
 10  9  2  0  0  0  0
 10 11  1  0  0  0  0
 11  6  2  0  0  0  0
 12 23  1  0  0  0  0
 12 13  1  0  0  0  0
 14 13  2  0  0  0  0
 15 13  1  6  0  0  0
 15 16  1  0  0  0  0
 15 21  1  0  0  0  0
 16 17  1  0  0  0  0
 17 18  1  0  0  0  0
 18 19  1  1  0  0  0
 20 18  1  0  0  0  0
 21 20  1  0  0  0  0
 23 22  1  0  0  0  0
 23 24  1  0  0  0  0
 25  5  1  0  0  0  0
 26 25  1  0  0  0  0
 27 25  2  0  0  0  0
M  END
>  <minimizedAffinity>
-3.39307737

$$$$

 OpenBabel09082221083D

 27 29  0  0  1  0  0  0  0  0999 V2000
    1.8160    5.0320    0.8700 C   0  0  0  0  0  0  0  0  0  0  0  0
    1.8570    6.1930    1.7160 C   0  0  0  0  0  3  0  0  0  0  0  0
    1.9820    5.8940    3.0580 C   0  0  0  0  0  0  0  0  0  0  0  0
    2.0600    4.2020    3.2920 S   0  0  0  0  0  0  0  0  0  0  0  0
    2.0230    3.8720    1.6040 C   0  0  0  0  0  0  0  0  0  0  0  0
    2.0100    6.8130    4.2020 C   0  0  0  0  0  0  0  0  0  0  0  0
    1.7880    8.1900    4.0430 C   0  0  0  0  0  3  0  0  0  0  0  0
    1.7990    9.0490    5.1450 C   0  0  0  0  0  3  0  0  0  0  0  0
    2.0270    8.5420    6.4220 C   0  0  0  0  0  3  0  0  0  0  0  0
    2.2470    7.1780    6.5980 C   0  0  0  0  0  3  0  0  0  0  0  0
    2.2360    6.3190    5.4960 C   0  0  0  0  0  3  0  0  0  0  0  0
    1.6320    5.1160   -0.5340 N   0  0  0  0  0  0  0  0  0  0  0  0
    2.7860    5.4220   -1.2730 C   0  0  0  0  0  0  0  0  0  0  0  0
    3.9260    5.3040   -0.7970 O   0  0  0  0  0  0  0  0  0  0  0  0
    2.6560    5.8490   -2.7410 C   0  0  1  0  0  3  0  0  0  0  0  0
    2.9330    7.3490   -2.8930 C   0  0  0  0  0  2  0  0  0  0  0  0
    2.8770    7.7930   -4.3550 C   0  0  0  0  0  2  0  0  0  0  0  0
    3.8270    6.9760   -5.2380 C   0  0  2  0  0  3  0  0  0  0  0  0
    3.7030    7.4000   -6.7000 C   0  0  0  0  0  1  0  0  0  0  0  0
    3.5570    5.4740   -5.0830 C   0  0  0  0  0  2  0  0  0  0  0  0
    3.6280    5.0430   -3.6210 C   0  0  0  0  0  2  0  0  0  0  0  0
   -0.5810    5.9420   -1.4580 C   0  0  0  0  0  1  0  0  0  0  0  0
    0.2950    4.7530   -1.0640 C   0  0  0  0  0  3  0  0  0  0  0  0
    0.3530    3.6670   -2.1410 C   0  0  0  0  0  1  0  0  0  0  0  0
    2.2700    2.5000    1.0660 C   0  0  0  0  0  0  0  0  0  0  0  0
    1.2590    1.7400    0.9200 O   0  0  0  0  0  1  0  0  0  0  0  0
    3.4750    2.1520    0.8560 O   0  0  0  0  0  0  0  0  0  0  0  0
  1  5  2  0  0  0  0
  1  2  1  0  0  0  0
  2  3  2  0  0  0  0
  3  4  1  0  0  0  0
  3  6  1  0  0  0  0
  5  4  1  0  0  0  0
  6 11  1  0  0  0  0
  7  6  2  0  0  0  0
  7  8  1  0  0  0  0
  8  9  2  0  0  0  0
  9 10  1  0  0  0  0
 11 10  2  0  0  0  0
 12  1  1  0  0  0  0
 13 14  2  0  0  0  0
 13 12  1  0  0  0  0
 15 13  1  1  0  0  0
 16 15  1  0  0  0  0
 17 16  1  0  0  0  0
 18 19  1  6  0  0  0
 18 20  1  0  0  0  0
 18 17  1  0  0  0  0
 20 21  1  0  0  0  0
 21 15  1  0  0  0  0
 22 23  1  0  0  0  0
 23 12  1  0  0  0  0
 24 23  1  0  0  0  0
 25  5  1  0  0  0  0
 26 25  1  0  0  0  0
 27 25  2  0  0  0  0
M  END
>  <minimizedAffinity>
-3.26712394

$$$$
