
 OpenBabel09092210413D

 27 29  0  0  1  0  0  0  0  0999 V2000
    1.1860    4.4480   -2.1890 C   0  0  0  0  0  0  0  0  0  0  0  0
    2.0120    5.5460   -2.6100 C   0  0  0  0  0  3  0  0  0  0  0  0
    2.3700    5.4870   -3.9430 C   0  0  0  0  0  0  0  0  0  0  0  0
    1.6960    4.1030   -4.6850 S   0  0  0  0  0  0  0  0  0  0  0  0
    0.8520    3.6340   -3.2620 C   0  0  0  0  0  0  0  0  0  0  0  0
    3.2340    6.4010   -4.7000 C   0  0  0  0  0  0  0  0  0  0  0  0
    3.6390    7.6360   -4.1690 C   0  0  0  0  0  3  0  0  0  0  0  0
    4.4770    8.4870   -4.8960 C   0  0  0  0  0  3  0  0  0  0  0  0
    4.9250    8.1120   -6.1600 C   0  0  0  0  0  3  0  0  0  0  0  0
    4.5340    6.8890   -6.7000 C   0  0  0  0  0  3  0  0  0  0  0  0
    3.6960    6.0390   -5.9740 C   0  0  0  0  0  3  0  0  0  0  0  0
    0.7580    4.2870   -0.8460 N   0  0  0  0  0  0  0  0  0  0  0  0
    1.6220    3.5440   -0.0260 C   0  0  0  0  0  0  0  0  0  0  0  0
    2.8030    3.3260   -0.3360 O   0  0  0  0  0  0  0  0  0  0  0  0
    1.1270    3.0370    1.3350 C   0  0  1  0  0  3  0  0  0  0  0  0
    1.1430    1.5050    1.3790 C   0  0  0  0  0  2  0  0  0  0  0  0
    0.7190    0.9690    2.7460 C   0  0  0  0  0  2  0  0  0  0  0  0
    1.5720    1.5510    3.8790 C   0  0  2  0  0  3  0  0  0  0  0  0
    1.0850    1.0460    5.2360 C   0  0  0  0  0  1  0  0  0  0  0  0
    1.5630    3.0840    3.8340 C   0  0  0  0  0  2  0  0  0  0  0  0
    2.0010    3.6040    2.4680 C   0  0  0  0  0  2  0  0  0  0  0  0
   -1.6450    4.1200   -0.0510 C   0  0  0  0  0  1  0  0  0  0  0  0
   -0.4670    5.0160   -0.4340 C   0  0  0  0  0  3  0  0  0  0  0  0
   -0.1920    6.1170    0.5920 C   0  0  0  0  0  1  0  0  0  0  0  0
   -0.1570    2.5320   -3.2740 C   0  0  0  0  0  0  0  0  0  0  0  0
    0.2820    1.3380   -3.3100 O   0  0  0  0  0  1  0  0  0  0  0  0
   -1.3880    2.8530   -3.3200 O   0  0  0  0  0  0  0  0  0  0  0  0
  1 12  1  0  0  0  0
  2  1  1  0  0  0  0
  3  2  2  0  0  0  0
  4  3  1  0  0  0  0
  4  5  1  0  0  0  0
  5  1  2  0  0  0  0
  6  7  1  0  0  0  0
  6  3  1  0  0  0  0
  8  7  2  0  0  0  0
  9  8  1  0  0  0  0
 10  9  2  0  0  0  0
 10 11  1  0  0  0  0
 11  6  2  0  0  0  0
 12 23  1  0  0  0  0
 12 13  1  0  0  0  0
 14 13  2  0  0  0  0
 15 13  1  6  0  0  0
 15 16  1  0  0  0  0
 15 21  1  0  0  0  0
 16 17  1  0  0  0  0
 17 18  1  0  0  0  0
 18 19  1  1  0  0  0
 20 18  1  0  0  0  0
 21 20  1  0  0  0  0
 23 22  1  0  0  0  0
 23 24  1  0  0  0  0
 25  5  1  0  0  0  0
 26 25  1  0  0  0  0
 27 25  2  0  0  0  0
M  END
>  <minimizedAffinity>
-3.39307737

$$$$
