
 OpenBabel09092210413D

 27 29  0  0  1  0  0  0  0  0999 V2000
    1.7260    5.1910   -0.3760 C   0  0  0  0  0  0  0  0  0  0  0  0
    1.7770    5.9070   -1.6200 C   0  0  0  0  0  3  0  0  0  0  0  0
    2.8810    5.5980   -2.3900 C   0  0  0  0  0  0  0  0  0  0  0  0
    3.8520    4.4310   -1.6060 S   0  0  0  0  0  0  0  0  0  0  0  0
    2.7580    4.2670   -0.2900 C   0  0  0  0  0  0  0  0  0  0  0  0
    3.2810    6.1620   -3.6850 C   0  0  0  0  0  0  0  0  0  0  0  0
    3.6130    7.5190   -3.8240 C   0  0  0  0  0  3  0  0  0  0  0  0
    4.0100    8.0360   -5.0610 C   0  0  0  0  0  3  0  0  0  0  0  0
    4.0850    7.2020   -6.1740 C   0  0  0  0  0  3  0  0  0  0  0  0
    3.7610    5.8530   -6.0530 C   0  0  0  0  0  3  0  0  0  0  0  0
    3.3640    5.3360   -4.8160 C   0  0  0  0  0  3  0  0  0  0  0  0
    0.7070    5.4060    0.5870 N   0  0  0  0  0  0  0  0  0  0  0  0
   -0.4920    4.7140    0.3550 C   0  0  0  0  0  0  0  0  0  0  0  0
   -0.5600    3.7500   -0.4230 O   0  0  0  0  0  0  0  0  0  0  0  0
   -1.7550    5.1040    1.1340 C   0  0  1  0  0  3  0  0  0  0  0  0
   -2.9130    5.3980    0.1720 C   0  0  0  0  0  2  0  0  0  0  0  0
   -4.2060    5.7240    0.9200 C   0  0  0  0  0  2  0  0  0  0  0  0
   -4.5920    4.6160    1.9060 C   0  0  2  0  0  3  0  0  0  0  0  0
   -5.8520    4.9990    2.6810 C   0  0  0  0  0  1  0  0  0  0  0  0
   -3.4340    4.3150    2.8660 C   0  0  0  0  0  2  0  0  0  0  0  0
   -2.1540    3.9780    2.1060 C   0  0  0  0  0  2  0  0  0  0  0  0
    1.2460    5.4190    3.0660 C   0  0  0  0  0  1  0  0  0  0  0  0
    1.0600    6.2200    1.7760 C   0  0  0  0  0  3  0  0  0  0  0  0
    2.2010    7.2040    1.5110 C   0  0  0  0  0  1  0  0  0  0  0  0
    2.9170    3.1910    0.7350 C   0  0  0  0  0  0  0  0  0  0  0  0
    2.1980    2.1480    0.6040 O   0  0  0  0  0  0  0  0  0  0  0  0
    3.7030    3.4100    1.7110 O   0  0  0  0  0  1  0  0  0  0  0  0
  1  5  2  0  0  0  0
  1 12  1  0  0  0  0
  2  1  1  0  0  0  0
  3  2  2  0  0  0  0
  3  4  1  0  0  0  0
  4  5  1  0  0  0  0
  5 25  1  0  0  0  0
  6  3  1  0  0  0  0
  7  6  1  0  0  0  0
  8  7  2  0  0  0  0
  9 10  2  0  0  0  0
  9  8  1  0  0  0  0
 10 11  1  0  0  0  0
 11  6  2  0  0  0  0
 12 23  1  0  0  0  0
 13 12  1  0  0  0  0
 14 13  2  0  0  0  0
 15 13  1  6  0  0  0
 15 21  1  0  0  0  0
 16 17  1  0  0  0  0
 16 15  1  0  0  0  0
 17 18  1  0  0  0  0
 18 19  1  1  0  0  0
 18 20  1  0  0  0  0
 21 20  1  0  0  0  0
 23 22  1  0  0  0  0
 24 23  1  0  0  0  0
 25 27  1  0  0  0  0
 26 25  2  0  0  0  0
M  END
>  <minimizedAffinity>
-3.46204901

$$$$
