
 OpenBabel09092210413D

 27 29  0  0  1  0  0  0  0  0999 V2000
    0.6800    3.7640   -0.4620 C   0  0  0  0  0  0  0  0  0  0  0  0
   -0.6010    3.2010   -0.1350 C   0  0  0  0  0  3  0  0  0  0  0  0
   -0.5350    2.1800    0.7930 C   0  0  0  0  0  0  0  0  0  0  0  0
    1.0830    1.9110    1.2750 S   0  0  0  0  0  0  0  0  0  0  0  0
    1.6820    3.2120    0.3240 C   0  0  0  0  0  0  0  0  0  0  0  0
   -1.6260    1.3530    1.3220 C   0  0  0  0  0  0  0  0  0  0  0  0
   -1.4110    0.4320    2.3600 C   0  0  0  0  0  3  0  0  0  0  0  0
   -2.4650   -0.3350    2.8660 C   0  0  0  0  0  3  0  0  0  0  0  0
   -3.7480   -0.1880    2.3430 C   0  0  0  0  0  3  0  0  0  0  0  0
   -3.9780    0.7230    1.3150 C   0  0  0  0  0  3  0  0  0  0  0  0
   -2.9240    1.4900    0.8100 C   0  0  0  0  0  3  0  0  0  0  0  0
    0.8410    4.7820   -1.4360 N   0  0  0  0  0  0  0  0  0  0  0  0
    1.3380    4.3520   -2.6770 C   0  0  0  0  0  0  0  0  0  0  0  0
    1.3300    3.1570   -3.0140 O   0  0  0  0  0  0  0  0  0  0  0  0
    1.8490    5.3850   -3.6890 C   0  0  1  0  0  3  0  0  0  0  0  0
    3.2180    5.9270   -3.2630 C   0  0  0  0  0  2  0  0  0  0  0  0
    3.7860    6.9110   -4.2860 C   0  0  0  0  0  2  0  0  0  0  0  0
    3.8610    6.2970   -5.6890 C   0  0  2  0  0  3  0  0  0  0  0  0
    4.3720    7.3220   -6.6990 C   0  0  0  0  0  1  0  0  0  0  0  0
    2.4940    5.7490   -6.1160 C   0  0  0  0  0  2  0  0  0  0  0  0
    1.9460    4.7590   -5.0910 C   0  0  0  0  0  2  0  0  0  0  0  0
   -1.0900    6.4250   -1.5010 C   0  0  0  0  0  1  0  0  0  0  0  0
    0.3530    6.1380   -1.0850 C   0  0  0  0  0  3  0  0  0  0  0  0
    0.6470    6.5220    0.3660 C   0  0  0  0  0  1  0  0  0  0  0  0
    3.0950    3.6850    0.4410 C   0  0  0  0  0  0  0  0  0  0  0  0
    3.9150    3.3020   -0.4550 O   0  0  0  0  0  0  0  0  0  0  0  0
    3.4080    4.3780    1.4610 O   0  0  0  0  0  1  0  0  0  0  0  0
  1  2  1  0  0  0  0
  1  5  2  0  0  0  0
  2  3  2  0  0  0  0
  3  4  1  0  0  0  0
  3  6  1  0  0  0  0
  5 25  1  0  0  0  0
  5  4  1  0  0  0  0
  6  7  1  0  0  0  0
  7  8  2  0  0  0  0
  9  8  1  0  0  0  0
 10  9  2  0  0  0  0
 11 10  1  0  0  0  0
 11  6  2  0  0  0  0
 12 23  1  0  0  0  0
 12  1  1  0  0  0  0
 13 12  1  0  0  0  0
 14 13  2  0  0  0  0
 15 16  1  0  0  0  0
 15 13  1  1  0  0  0
 17 16  1  0  0  0  0
 18 19  1  6  0  0  0
 18 17  1  0  0  0  0
 20 18  1  0  0  0  0
 20 21  1  0  0  0  0
 21 15  1  0  0  0  0
 22 23  1  0  0  0  0
 23 24  1  0  0  0  0
 25 27  1  0  0  0  0
 26 25  2  0  0  0  0
M  END
>  <minimizedAffinity>
-3.52378988

$$$$
