
 OpenBabel09092210413D

 27 29  0  0  1  0  0  0  0  0999 V2000
    2.5250    5.9100   -0.4170 C   0  0  0  0  0  0  0  0  0  0  0  0
    2.5720    6.6190   -1.6650 C   0  0  0  0  0  3  0  0  0  0  0  0
    3.1810    5.9090   -2.6810 C   0  0  0  0  0  0  0  0  0  0  0  0
    3.6900    4.3760   -2.1200 S   0  0  0  0  0  0  0  0  0  0  0  0
    3.0150    4.6200   -0.5570 C   0  0  0  0  0  0  0  0  0  0  0  0
    3.4460    6.3300   -4.0620 C   0  0  0  0  0  0  0  0  0  0  0  0
    3.1490    5.4980   -5.1520 C   0  0  0  0  0  3  0  0  0  0  0  0
    3.3890    5.9220   -6.4630 C   0  0  0  0  0  3  0  0  0  0  0  0
    3.9250    7.1860   -6.6990 C   0  0  0  0  0  3  0  0  0  0  0  0
    4.2230    8.0250   -5.6290 C   0  0  0  0  0  3  0  0  0  0  0  0
    3.9820    7.6010   -4.3190 C   0  0  0  0  0  3  0  0  0  0  0  0
    1.9950    6.4840    0.7670 N   0  0  0  0  0  0  0  0  0  0  0  0
    2.9470    6.9840    1.6700 C   0  0  0  0  0  0  0  0  0  0  0  0
    4.1210    7.2100    1.3360 O   0  0  0  0  0  0  0  0  0  0  0  0
    2.5240    7.3320    3.1030 C   0  0  1  0  0  3  0  0  0  0  0  0
    2.5130    6.0760    3.9830 C   0  0  0  0  0  2  0  0  0  0  0  0
    2.1610    6.4010    5.4350 C   0  0  0  0  0  2  0  0  0  0  0  0
    3.0920    7.4650    6.0260 C   0  0  2  0  0  3  0  0  0  0  0  0
    2.6760    7.8130    7.4540 C   0  0  0  0  0  1  0  0  0  0  0  0
    3.1100    8.7210    5.1450 C   0  0  0  0  0  2  0  0  0  0  0  0
    3.4760    8.3830    3.7020 C   0  0  0  0  0  2  0  0  0  0  0  0
   -0.0400    7.9500    0.3890 C   0  0  0  0  0  1  0  0  0  0  0  0
    0.5200    6.6070    0.8590 C   0  0  0  0  0  3  0  0  0  0  0  0
   -0.2180    5.4070    0.2610 C   0  0  0  0  0  1  0  0  0  0  0  0
    2.9310    3.5130    0.4430 C   0  0  0  0  0  0  0  0  0  0  0  0
    2.0560    2.6100    0.2430 O   0  0  0  0  0  0  0  0  0  0  0  0
    3.6840    3.5770    1.4670 O   0  0  0  0  0  1  0  0  0  0  0  0
  1 12  1  0  0  0  0
  2  1  1  0  0  0  0
  3  4  1  0  0  0  0
  3  2  2  0  0  0  0
  4  5  1  0  0  0  0
  5  1  2  0  0  0  0
  5 25  1  0  0  0  0
  6  3  1  0  0  0  0
  7  6  2  0  0  0  0
  8  7  1  0  0  0  0
  9  8  2  0  0  0  0
  9 10  1  0  0  0  0
 10 11  2  0  0  0  0
 11  6  1  0  0  0  0
 12 23  1  0  0  0  0
 12 13  1  0  0  0  0
 14 13  2  0  0  0  0
 15 13  1  6  0  0  0
 15 21  1  0  0  0  0
 15 16  1  0  0  0  0
 16 17  1  0  0  0  0
 17 18  1  0  0  0  0
 18 19  1  1  0  0  0
 20 18  1  0  0  0  0
 21 20  1  0  0  0  0
 22 23  1  0  0  0  0
 24 23  1  0  0  0  0
 25 27  1  0  0  0  0
 26 25  2  0  0  0  0
M  END
>  <minimizedAffinity>
-3.85934997

$$$$
