
 OpenBabel09092210413D

 27 29  0  0  1  0  0  0  0  0999 V2000
    2.1070    5.6040   -0.3560 C   0  0  0  0  0  0  0  0  0  0  0  0
    2.1840    6.3480   -1.5830 C   0  0  0  0  0  3  0  0  0  0  0  0
    3.0460    5.7960   -2.5100 C   0  0  0  0  0  0  0  0  0  0  0  0
    3.7570    4.3690   -1.8940 S   0  0  0  0  0  0  0  0  0  0  0  0
    2.8470    4.4330   -0.4360 C   0  0  0  0  0  0  0  0  0  0  0  0
    3.4070    6.3030   -3.8400 C   0  0  0  0  0  0  0  0  0  0  0  0
    3.8040    7.6340   -4.0350 C   0  0  0  0  0  3  0  0  0  0  0  0
    4.1630    8.0960   -5.3050 C   0  0  0  0  0  3  0  0  0  0  0  0
    4.1320    7.2300   -6.3960 C   0  0  0  0  0  3  0  0  0  0  0  0
    3.7420    5.9050   -6.2190 C   0  0  0  0  0  3  0  0  0  0  0  0
    3.3840    5.4440   -4.9490 C   0  0  0  0  0  3  0  0  0  0  0  0
    1.3260    6.0310    0.7480 N   0  0  0  0  0  0  0  0  0  0  0  0
   -0.0340    5.6850    0.6900 C   0  0  0  0  0  0  0  0  0  0  0  0
   -0.4610    4.8080   -0.0770 O   0  0  0  0  0  0  0  0  0  0  0  0
   -1.0280    6.3530    1.6490 C   0  0  1  0  0  3  0  0  0  0  0  0
   -2.1060    7.1110    0.8660 C   0  0  0  0  0  2  0  0  0  0  0  0
   -3.1520    7.7320    1.7930 C   0  0  0  0  0  2  0  0  0  0  0  0
   -3.7890    6.6890    2.7180 C   0  0  2  0  0  3  0  0  0  0  0  0
   -4.7830    7.3490    3.6720 C   0  0  0  0  0  1  0  0  0  0  0  0
   -2.7130    5.9250    3.4980 C   0  0  0  0  0  2  0  0  0  0  0  0
   -1.6830    5.2990    2.5600 C   0  0  0  0  0  2  0  0  0  0  0  0
    2.1160    5.8240    3.1490 C   0  0  0  0  0  1  0  0  0  0  0  0
    2.0430    6.6700    1.8780 C   0  0  0  0  0  3  0  0  0  0  0  0
    3.3950    7.2600    1.4720 C   0  0  0  0  0  1  0  0  0  0  0  0
    2.8420    3.2990    0.5370 C   0  0  0  0  0  0  0  0  0  0  0  0
    1.9350    2.4160    0.4010 O   0  0  0  0  0  0  0  0  0  0  0  0
    3.6960    3.3210    1.4810 O   0  0  0  0  0  1  0  0  0  0  0  0
  1 12  1  0  0  0  0
  2  1  1  0  0  0  0
  3  4  1  0  0  0  0
  3  2  2  0  0  0  0
  4  5  1  0  0  0  0
  5  1  2  0  0  0  0
  5 25  1  0  0  0  0
  6  3  1  0  0  0  0
  7  6  1  0  0  0  0
  8  7  2  0  0  0  0
  9 10  2  0  0  0  0
  9  8  1  0  0  0  0
 10 11  1  0  0  0  0
 11  6  2  0  0  0  0
 12 23  1  0  0  0  0
 13 12  1  0  0  0  0
 14 13  2  0  0  0  0
 15 13  1  6  0  0  0
 15 21  1  0  0  0  0
 16 15  1  0  0  0  0
 16 17  1  0  0  0  0
 17 18  1  0  0  0  0
 18 20  1  0  0  0  0
 18 19  1  1  0  0  0
 21 20  1  0  0  0  0
 23 22  1  0  0  0  0
 24 23  1  0  0  0  0
 25 27  1  0  0  0  0
 26 25  2  0  0  0  0
M  END
>  <minimizedAffinity>
-3.52476978

$$$$
