
 OpenBabel09092210413D

 27 29  0  0  1  0  0  0  0  0999 V2000
    1.4870    4.3650   -0.6750 C   0  0  0  0  0  0  0  0  0  0  0  0
    1.5120    4.9870   -1.9700 C   0  0  0  0  0  3  0  0  0  0  0  0
    2.7870    5.2700   -2.4210 C   0  0  0  0  0  0  0  0  0  0  0  0
    3.9540    4.7730   -1.2750 S   0  0  0  0  0  0  0  0  0  0  0  0
    2.7720    4.0960   -0.2250 C   0  0  0  0  0  0  0  0  0  0  0  0
    3.1900    5.9380   -3.6650 C   0  0  0  0  0  0  0  0  0  0  0  0
    3.5330    7.2990   -3.6890 C   0  0  0  0  0  3  0  0  0  0  0  0
    3.9330    7.9160   -4.8780 C   0  0  0  0  0  3  0  0  0  0  0  0
    4.0010    7.1770   -6.0580 C   0  0  0  0  0  3  0  0  0  0  0  0
    3.6670    5.8250   -6.0500 C   0  0  0  0  0  3  0  0  0  0  0  0
    3.2660    5.2100   -4.8610 C   0  0  0  0  0  3  0  0  0  0  0  0
    0.2770    4.0470   -0.0050 N   0  0  0  0  0  0  0  0  0  0  0  0
   -0.3230    2.8390   -0.3940 C   0  0  0  0  0  0  0  0  0  0  0  0
    0.2960    1.9630   -1.0180 O   0  0  0  0  0  0  0  0  0  0  0  0
   -1.7720    2.5450    0.0180 C   0  0  1  0  0  3  0  0  0  0  0  0
   -2.7300    2.8160   -1.1480 C   0  0  0  0  0  2  0  0  0  0  0  0
   -4.1750    2.4680   -0.7910 C   0  0  0  0  0  2  0  0  0  0  0  0
   -4.3120    1.0210   -0.3050 C   0  0  2  0  0  3  0  0  0  0  0  0
   -5.7540    0.7230    0.1030 C   0  0  0  0  0  1  0  0  0  0  0  0
   -3.3510    0.7450    0.8580 C   0  0  0  0  0  2  0  0  0  0  0  0
   -1.9110    1.0850    0.4820 C   0  0  0  0  0  2  0  0  0  0  0  0
   -1.3920    5.7740    0.8110 C   0  0  0  0  0  1  0  0  0  0  0  0
   -0.1410    4.9440    1.1000 C   0  0  0  0  0  3  0  0  0  0  0  0
   -0.1890    4.2380    2.4570 C   0  0  0  0  0  1  0  0  0  0  0  0
    3.1540    3.2680    0.9580 C   0  0  0  0  0  0  0  0  0  0  0  0
    3.4900    3.8850    2.0190 O   0  0  0  0  0  1  0  0  0  0  0  0
    3.1900    2.0040    0.8130 O   0  0  0  0  0  0  0  0  0  0  0  0
  1  5  2  0  0  0  0
  1 12  1  0  0  0  0
  2  1  1  0  0  0  0
  3  2  2  0  0  0  0
  3  4  1  0  0  0  0
  4  5  1  0  0  0  0
  5 25  1  0  0  0  0
  6  3  1  0  0  0  0
  7  6  1  0  0  0  0
  8  7  2  0  0  0  0
  9 10  2  0  0  0  0
  9  8  1  0  0  0  0
 10 11  1  0  0  0  0
 11  6  2  0  0  0  0
 12 23  1  0  0  0  0
 13 12  1  0  0  0  0
 14 13  2  0  0  0  0
 15 13  1  6  0  0  0
 15 21  1  0  0  0  0
 16 17  1  0  0  0  0
 16 15  1  0  0  0  0
 17 18  1  0  0  0  0
 18 19  1  1  0  0  0
 18 20  1  0  0  0  0
 21 20  1  0  0  0  0
 22 23  1  0  0  0  0
 23 24  1  0  0  0  0
 25 26  1  0  0  0  0
 27 25  2  0  0  0  0
M  END
>  <minimizedAffinity>
-3.53525305

$$$$
