
 OpenBabel09092210413D

 27 29  0  0  1  0  0  0  0  0999 V2000
    1.4690    5.0870    0.7050 C   0  0  0  0  0  0  0  0  0  0  0  0
    1.2790    6.2220    1.5650 C   0  0  0  0  0  3  0  0  0  0  0  0
    1.3110    5.9080    2.9090 C   0  0  0  0  0  0  0  0  0  0  0  0
    1.5800    4.2350    3.1290 S   0  0  0  0  0  0  0  0  0  0  0  0
    1.7500    3.9450    1.4420 C   0  0  0  0  0  0  0  0  0  0  0  0
    1.1100    6.7960    4.0610 C   0  0  0  0  0  0  0  0  0  0  0  0
   -0.0420    6.7140    4.8590 C   0  0  0  0  0  3  0  0  0  0  0  0
   -0.2090    7.5530    5.9640 C   0  0  0  0  0  3  0  0  0  0  0  0
    0.7770    8.4830    6.2890 C   0  0  0  0  0  3  0  0  0  0  0  0
    1.9270    8.5750    5.5100 C   0  0  0  0  0  3  0  0  0  0  0  0
    2.0940    7.7360    4.4050 C   0  0  0  0  0  3  0  0  0  0  0  0
    1.4120    5.1820   -0.7090 N   0  0  0  0  0  0  0  0  0  0  0  0
    2.6140    5.5520   -1.3340 C   0  0  0  0  0  0  0  0  0  0  0  0
    3.7090    5.4820   -0.7550 O   0  0  0  0  0  0  0  0  0  0  0  0
    2.6000    5.9930   -2.8030 C   0  0  1  0  0  3  0  0  0  0  0  0
    3.0490    7.4530   -2.9330 C   0  0  0  0  0  2  0  0  0  0  0  0
    3.1110    7.9030   -4.3930 C   0  0  0  0  0  2  0  0  0  0  0  0
    4.0040    6.9870   -5.2360 C   0  0  2  0  0  3  0  0  0  0  0  0
    3.9960    7.4240   -6.7000 C   0  0  0  0  0  1  0  0  0  0  0  0
    3.5620    5.5240   -5.1050 C   0  0  0  0  0  2  0  0  0  0  0  0
    3.5170    5.0860   -3.6430 C   0  0  0  0  0  2  0  0  0  0  0  0
   -0.6260    5.8960   -2.0390 C   0  0  0  0  0  1  0  0  0  0  0  0
    0.1490    4.7640   -1.3660 C   0  0  0  0  0  3  0  0  0  0  0  0
    0.3200    3.5360   -2.2630 C   0  0  0  0  0  1  0  0  0  0  0  0
    2.2200    2.6280    0.9140 C   0  0  0  0  0  0  0  0  0  0  0  0
    1.3400    1.7310    0.7150 O   0  0  0  0  0  0  0  0  0  0  0  0
    3.4720    2.4610    0.7650 O   0  0  0  0  0  1  0  0  0  0  0  0
  1  5  2  0  0  0  0
  1  2  1  0  0  0  0
  2  3  2  0  0  0  0
  3  4  1  0  0  0  0
  3  6  1  0  0  0  0
  5  4  1  0  0  0  0
  6 11  2  0  0  0  0
  6  7  1  0  0  0  0
  7  8  2  0  0  0  0
  8  9  1  0  0  0  0
 10  9  2  0  0  0  0
 11 10  1  0  0  0  0
 12  1  1  0  0  0  0
 13 14  2  0  0  0  0
 13 12  1  0  0  0  0
 15 13  1  1  0  0  0
 16 15  1  0  0  0  0
 17 16  1  0  0  0  0
 18 19  1  6  0  0  0
 18 20  1  0  0  0  0
 18 17  1  0  0  0  0
 20 21  1  0  0  0  0
 21 15  1  0  0  0  0
 22 23  1  0  0  0  0
 23 12  1  0  0  0  0
 24 23  1  0  0  0  0
 25  5  1  0  0  0  0
 26 25  2  0  0  0  0
 27 25  1  0  0  0  0
M  END
>  <minimizedAffinity>
-3.38316965

$$$$
