
 OpenBabel09092210413D

 27 29  0  0  1  0  0  0  0  0999 V2000
    2.5150    5.8930   -0.3610 C   0  0  0  0  0  0  0  0  0  0  0  0
    2.5270    6.5620   -1.6320 C   0  0  0  0  0  3  0  0  0  0  0  0
    3.1340    5.8310   -2.6340 C   0  0  0  0  0  0  0  0  0  0  0  0
    3.6820    4.3280   -2.0340 S   0  0  0  0  0  0  0  0  0  0  0  0
    3.0280    4.6080   -0.4680 C   0  0  0  0  0  0  0  0  0  0  0  0
    3.3670    6.2130   -4.0330 C   0  0  0  0  0  0  0  0  0  0  0  0
    2.8270    5.4730   -5.0950 C   0  0  0  0  0  3  0  0  0  0  0  0
    3.0430    5.8610   -6.4210 C   0  0  0  0  0  3  0  0  0  0  0  0
    3.7980    6.9980   -6.7000 C   0  0  0  0  0  3  0  0  0  0  0  0
    4.3380    7.7450   -5.6580 C   0  0  0  0  0  3  0  0  0  0  0  0
    4.1220    7.3570   -4.3320 C   0  0  0  0  0  3  0  0  0  0  0  0
    1.9930    6.4940    0.8140 N   0  0  0  0  0  0  0  0  0  0  0  0
    2.9480    7.0570    1.6750 C   0  0  0  0  0  0  0  0  0  0  0  0
    4.1060    7.3090    1.3040 O   0  0  0  0  0  0  0  0  0  0  0  0
    2.5460    7.4460    3.1030 C   0  0  1  0  0  3  0  0  0  0  0  0
    2.5450    6.2150    4.0180 C   0  0  0  0  0  2  0  0  0  0  0  0
    2.2140    6.5800    5.4640 C   0  0  0  0  0  2  0  0  0  0  0  0
    3.1550    7.6590    6.0120 C   0  0  2  0  0  3  0  0  0  0  0  0
    2.7600    8.0470    7.4360 C   0  0  0  0  0  1  0  0  0  0  0  0
    3.1620    8.8900    5.0970 C   0  0  0  0  0  2  0  0  0  0  0  0
    3.5070    8.5120    3.6590 C   0  0  0  0  0  2  0  0  0  0  0  0
   -0.0910    7.9020    0.4850 C   0  0  0  0  0  1  0  0  0  0  0  0
    0.5160    6.5730    0.9350 C   0  0  0  0  0  3  0  0  0  0  0  0
   -0.1980    5.3550    0.3440 C   0  0  0  0  0  1  0  0  0  0  0  0
    2.9820    3.5320    0.5680 C   0  0  0  0  0  0  0  0  0  0  0  0
    3.7310    3.6720    1.5890 O   0  0  0  0  0  1  0  0  0  0  0  0
    2.2570    2.5130    0.3360 O   0  0  0  0  0  0  0  0  0  0  0  0
  1 12  1  0  0  0  0
  2  1  1  0  0  0  0
  3  4  1  0  0  0  0
  3  2  2  0  0  0  0
  4  5  1  0  0  0  0
  5  1  2  0  0  0  0
  5 25  1  0  0  0  0
  6  3  1  0  0  0  0
  7  6  2  0  0  0  0
  8  7  1  0  0  0  0
  9  8  2  0  0  0  0
  9 10  1  0  0  0  0
 10 11  2  0  0  0  0
 11  6  1  0  0  0  0
 12 23  1  0  0  0  0
 12 13  1  0  0  0  0
 14 13  2  0  0  0  0
 15 13  1  6  0  0  0
 15 21  1  0  0  0  0
 15 16  1  0  0  0  0
 16 17  1  0  0  0  0
 17 18  1  0  0  0  0
 18 19  1  1  0  0  0
 20 18  1  0  0  0  0
 21 20  1  0  0  0  0
 22 23  1  0  0  0  0
 24 23  1  0  0  0  0
 25 26  1  0  0  0  0
 27 25  2  0  0  0  0
M  END
>  <minimizedAffinity>
-3.80163336

$$$$
