
 OpenBabel09092210413D

 27 29  0  0  1  0  0  0  0  0999 V2000
    2.6080    3.8710    0.6880 C   0  0  0  0  0  0  0  0  0  0  0  0
    2.4090    2.5350    1.1770 C   0  0  0  0  0  3  0  0  0  0  0  0
    2.9620    2.3150    2.4230 C   0  0  0  0  0  0  0  0  0  0  0  0
    3.7160    3.7350    3.0040 S   0  0  0  0  0  0  0  0  0  0  0  0
    3.2250    4.6650    1.6440 C   0  0  0  0  0  0  0  0  0  0  0  0
    2.9950    1.0730    3.2050 C   0  0  0  0  0  0  0  0  0  0  0  0
    2.7750    1.0720    4.5910 C   0  0  0  0  0  3  0  0  0  0  0  0
    2.7910   -0.1230    5.3170 C   0  0  0  0  0  3  0  0  0  0  0  0
    3.0220   -1.3320    4.6660 C   0  0  0  0  0  3  0  0  0  0  0  0
    3.2390   -1.3490    3.2900 C   0  0  0  0  0  3  0  0  0  0  0  0
    3.2230   -0.1550    2.5640 C   0  0  0  0  0  3  0  0  0  0  0  0
    2.1700    4.2860   -0.5960 N   0  0  0  0  0  0  0  0  0  0  0  0
    3.1690    4.3400   -1.5810 C   0  0  0  0  0  0  0  0  0  0  0  0
    4.2620    3.7670   -1.4470 O   0  0  0  0  0  0  0  0  0  0  0  0
    2.8920    5.0670   -2.9030 C   0  0  1  0  0  3  0  0  0  0  0  0
    3.3390    6.5310   -2.8180 C   0  0  0  0  0  2  0  0  0  0  0  0
    3.1380    7.2670   -4.1430 C   0  0  0  0  0  2  0  0  0  0  0  0
    3.8400    6.5550   -5.3050 C   0  0  2  0  0  3  0  0  0  0  0  0
    3.5690    7.2780   -6.6230 C   0  0  0  0  0  1  0  0  0  0  0  0
    3.3990    5.0890   -5.3900 C   0  0  0  0  0  2  0  0  0  0  0  0
    3.6180    4.3640   -4.0640 C   0  0  0  0  0  2  0  0  0  0  0  0
   -0.0340    3.2810   -1.3480 C   0  0  0  0  0  1  0  0  0  0  0  0
    0.7130    4.4900   -0.7810 C   0  0  0  0  0  3  0  0  0  0  0  0
    0.0310    5.0940    0.4480 C   0  0  0  0  0  1  0  0  0  0  0  0
    3.4010    6.1490    1.6010 C   0  0  0  0  0  0  0  0  0  0  0  0
    2.5710    6.8550    2.2590 O   0  0  0  0  0  1  0  0  0  0  0  0
    4.3210    6.6170    0.8570 O   0  0  0  0  0  0  0  0  0  0  0  0
  1  2  1  0  0  0  0
  1  5  2  0  0  0  0
  2  3  2  0  0  0  0
  3  4  1  0  0  0  0
  3  6  1  0  0  0  0
  5  4  1  0  0  0  0
  6  7  1  0  0  0  0
  7  8  2  0  0  0  0
  9  8  1  0  0  0  0
 10  9  2  0  0  0  0
 11  6  2  0  0  0  0
 11 10  1  0  0  0  0
 12  1  1  0  0  0  0
 13 14  2  0  0  0  0
 13 12  1  0  0  0  0
 15 16  1  0  0  0  0
 15 13  1  1  0  0  0
 17 16  1  0  0  0  0
 18 19  1  6  0  0  0
 18 17  1  0  0  0  0
 20 18  1  0  0  0  0
 20 21  1  0  0  0  0
 21 15  1  0  0  0  0
 22 23  1  0  0  0  0
 23 12  1  0  0  0  0
 23 24  1  0  0  0  0
 25  5  1  0  0  0  0
 25 26  1  0  0  0  0
 27 25  2  0  0  0  0
M  END
>  <minimizedAffinity>
-3.78551555

$$$$
