
 OpenBabel09092210413D

 27 29  0  0  1  0  0  0  0  0999 V2000
    2.1040    4.8600   -1.0640 C   0  0  0  0  0  0  0  0  0  0  0  0
    2.9010    5.7390   -1.8740 C   0  0  0  0  0  3  0  0  0  0  0  0
    2.6620    5.6110   -3.2280 C   0  0  0  0  0  0  0  0  0  0  0  0
    1.4610    4.4280   -3.5160 S   0  0  0  0  0  0  0  0  0  0  0  0
    1.1930    4.1570   -1.8400 C   0  0  0  0  0  0  0  0  0  0  0  0
    3.3170    6.3050   -4.3440 C   0  0  0  0  0  0  0  0  0  0  0  0
    3.4190    5.7190   -5.6140 C   0  0  0  0  0  3  0  0  0  0  0  0
    4.0290    6.4020   -6.6710 C   0  0  0  0  0  3  0  0  0  0  0  0
    4.5400    7.6820   -6.4710 C   0  0  0  0  0  3  0  0  0  0  0  0
    4.4450    8.2800   -5.2160 C   0  0  0  0  0  3  0  0  0  0  0  0
    3.8350    7.5960   -4.1610 C   0  0  0  0  0  3  0  0  0  0  0  0
    2.2380    4.7910    0.3460 N   0  0  0  0  0  0  0  0  0  0  0  0
    2.9450    3.6780    0.8280 C   0  0  0  0  0  0  0  0  0  0  0  0
    3.6740    2.9900    0.0960 O   0  0  0  0  0  0  0  0  0  0  0  0
    2.8830    3.3280    2.3200 C   0  0  1  0  0  3  0  0  0  0  0  0
    2.8800    1.8070    2.5180 C   0  0  0  0  0  2  0  0  0  0  0  0
    2.8860    1.4250    3.9980 C   0  0  0  0  0  2  0  0  0  0  0  0
    4.0600    2.0640    4.7490 C   0  0  2  0  0  3  0  0  0  0  0  0
    4.0040    1.7150    6.2350 C   0  0  0  0  0  1  0  0  0  0  0  0
    4.0700    3.5850    4.5480 C   0  0  0  0  0  2  0  0  0  0  0  0
    4.0760    3.9510    3.0670 C   0  0  0  0  0  2  0  0  0  0  0  0
    2.7700    7.0450    1.3810 C   0  0  0  0  0  1  0  0  0  0  0  0
    1.7370    5.9460    1.1310 C   0  0  0  0  0  3  0  0  0  0  0  0
    0.4000    6.4850    0.6160 C   0  0  0  0  0  1  0  0  0  0  0  0
    0.0550    3.3210   -1.3510 C   0  0  0  0  0  0  0  0  0  0  0  0
   -1.0980    3.8600   -1.3280 O   0  0  0  0  0  0  0  0  0  0  0  0
    0.3160    2.1510   -0.9230 O   0  0  0  0  0  1  0  0  0  0  0  0
  1 12  1  0  0  0  0
  2  1  1  0  0  0  0
  3  2  2  0  0  0  0
  4  3  1  0  0  0  0
  4  5  1  0  0  0  0
  5 25  1  0  0  0  0
  5  1  2  0  0  0  0
  6 11  1  0  0  0  0
  6  3  1  0  0  0  0
  7  6  2  0  0  0  0
  8  9  2  0  0  0  0
  8  7  1  0  0  0  0
  9 10  1  0  0  0  0
 10 11  2  0  0  0  0
 12 13  1  0  0  0  0
 12 23  1  0  0  0  0
 14 13  2  0  0  0  0
 15 13  1  6  0  0  0
 15 16  1  0  0  0  0
 15 21  1  0  0  0  0
 16 17  1  0  0  0  0
 17 18  1  0  0  0  0
 18 19  1  1  0  0  0
 20 18  1  0  0  0  0
 21 20  1  0  0  0  0
 23 22  1  0  0  0  0
 24 23  1  0  0  0  0
 25 26  2  0  0  0  0
 25 27  1  0  0  0  0
M  END
>  <minimizedAffinity>
-4.16095734

$$$$
