
 OpenBabel09092210413D

 27 29  0  0  1  0  0  0  0  0999 V2000
    1.6900    4.3360   -0.4700 C   0  0  0  0  0  0  0  0  0  0  0  0
    2.7540    4.4310    0.4900 C   0  0  0  0  0  3  0  0  0  0  0  0
    2.6210    3.5560    1.5500 C   0  0  0  0  0  0  0  0  0  0  0  0
    1.2060    2.6120    1.3760 S   0  0  0  0  0  0  0  0  0  0  0  0
    0.8240    3.2980   -0.1540 C   0  0  0  0  0  0  0  0  0  0  0  0
    3.4840    3.4070    2.7290 C   0  0  0  0  0  0  0  0  0  0  0  0
    4.2210    4.4860    3.2390 C   0  0  0  0  0  3  0  0  0  0  0  0
    5.0240    4.3320    4.3740 C   0  0  0  0  0  3  0  0  0  0  0  0
    5.0960    3.0970    5.0150 C   0  0  0  0  0  3  0  0  0  0  0  0
    4.3680    2.0170    4.5230 C   0  0  0  0  0  3  0  0  0  0  0  0
    3.5660    2.1710    3.3890 C   0  0  0  0  0  3  0  0  0  0  0  0
    1.6050    5.1860   -1.6020 N   0  0  0  0  0  0  0  0  0  0  0  0
    2.4440    4.8440   -2.6740 C   0  0  0  0  0  0  0  0  0  0  0  0
    2.9700    3.7230   -2.7700 O   0  0  0  0  0  0  0  0  0  0  0  0
    2.6760    5.8510   -3.8080 C   0  0  1  0  0  3  0  0  0  0  0  0
    3.4330    7.0800   -3.2920 C   0  0  0  0  0  2  0  0  0  0  0  0
    3.7390    8.0720   -4.4140 C   0  0  0  0  0  2  0  0  0  0  0  0
    4.5010    7.4140   -5.5690 C   0  0  2  0  0  3  0  0  0  0  0  0
    4.7370    8.4140   -6.6990 C   0  0  0  0  0  1  0  0  0  0  0  0
    3.7490    6.1800   -6.0830 C   0  0  0  0  0  2  0  0  0  0  0  0
    3.4620    5.1930   -4.9560 C   0  0  0  0  0  2  0  0  0  0  0  0
   -0.6910    5.9260   -2.3870 C   0  0  0  0  0  1  0  0  0  0  0  0
    0.5660    6.2450   -1.5770 C   0  0  0  0  0  3  0  0  0  0  0  0
    0.2590    6.7480   -0.1650 C   0  0  0  0  0  1  0  0  0  0  0  0
   -0.2660    2.7440   -1.0130 C   0  0  0  0  0  0  0  0  0  0  0  0
    0.0720    2.2390   -2.1320 O   0  0  0  0  0  0  0  0  0  0  0  0
   -1.4660    2.8740   -0.6100 O   0  0  0  0  0  1  0  0  0  0  0  0
  1  5  2  0  0  0  0
  1  2  1  0  0  0  0
  2  3  2  0  0  0  0
  3  6  1  0  0  0  0
  4  3  1  0  0  0  0
  5  4  1  0  0  0  0
  6  7  2  0  0  0  0
  6 11  1  0  0  0  0
  7  8  1  0  0  0  0
  8  9  2  0  0  0  0
 10  9  1  0  0  0  0
 11 10  2  0  0  0  0
 12 23  1  0  0  0  0
 12  1  1  0  0  0  0
 13 12  1  0  0  0  0
 14 13  2  0  0  0  0
 15 16  1  0  0  0  0
 15 13  1  1  0  0  0
 17 16  1  0  0  0  0
 18 19  1  6  0  0  0
 18 17  1  0  0  0  0
 20 18  1  0  0  0  0
 20 21  1  0  0  0  0
 21 15  1  0  0  0  0
 22 23  1  0  0  0  0
 23 24  1  0  0  0  0
 25 27  1  0  0  0  0
 25  5  1  0  0  0  0
 26 25  2  0  0  0  0
M  END
>  <minimizedAffinity>
-3.80635262

$$$$
