
 OpenBabel09092210413D

 27 29  0  0  1  0  0  0  0  0999 V2000
    2.3000    5.7240   -0.3060 C   0  0  0  0  0  0  0  0  0  0  0  0
    2.3370    6.4370   -1.5530 C   0  0  0  0  0  3  0  0  0  0  0  0
    3.1160    5.8250   -2.5150 C   0  0  0  0  0  0  0  0  0  0  0  0
    3.7960    4.3790   -1.9080 S   0  0  0  0  0  0  0  0  0  0  0  0
    2.9800    4.5180   -0.4000 C   0  0  0  0  0  0  0  0  0  0  0  0
    3.4190    6.2850   -3.8760 C   0  0  0  0  0  0  0  0  0  0  0  0
    3.8880    7.5830   -4.1250 C   0  0  0  0  0  3  0  0  0  0  0  0
    4.1900    8.0000   -5.4250 C   0  0  0  0  0  3  0  0  0  0  0  0
    4.0300    7.1200   -6.4930 C   0  0  0  0  0  3  0  0  0  0  0  0
    3.5680    5.8260   -6.2640 C   0  0  0  0  0  3  0  0  0  0  0  0
    3.2660    5.4110   -4.9640 C   0  0  0  0  0  3  0  0  0  0  0  0
    1.6070    6.2120    0.8310 N   0  0  0  0  0  0  0  0  0  0  0  0
    2.4110    6.8160    1.8110 C   0  0  0  0  0  0  0  0  0  0  0  0
    3.5690    7.1940    1.5750 O   0  0  0  0  0  0  0  0  0  0  0  0
    1.8310    7.0900    3.2050 C   0  0  1  0  0  3  0  0  0  0  0  0
    2.2060    5.9650    4.1760 C   0  0  0  0  0  2  0  0  0  0  0  0
    1.7000    6.2420    5.5920 C   0  0  0  0  0  2  0  0  0  0  0  0
    2.1890    7.5950    6.1190 C   0  0  2  0  0  3  0  0  0  0  0  0
    1.6170    7.8710    7.5090 C   0  0  0  0  0  1  0  0  0  0  0  0
    1.8210    8.7230    5.1470 C   0  0  0  0  0  2  0  0  0  0  0  0
    2.3440    8.4390    3.7420 C   0  0  0  0  0  2  0  0  0  0  0  0
   -0.5610    7.4190    0.3050 C   0  0  0  0  0  1  0  0  0  0  0  0
    0.1250    6.1460    0.8010 C   0  0  0  0  0  3  0  0  0  0  0  0
   -0.4040    4.8780    0.1260 C   0  0  0  0  0  1  0  0  0  0  0  0
    2.9810    3.4070    0.5990 C   0  0  0  0  0  0  0  0  0  0  0  0
    2.2060    2.4210    0.3770 O   0  0  0  0  0  0  0  0  0  0  0  0
    3.6980    3.5450    1.6410 O   0  0  0  0  0  1  0  0  0  0  0  0
  1 12  1  0  0  0  0
  2  1  1  0  0  0  0
  3  4  1  0  0  0  0
  3  2  2  0  0  0  0
  4  5  1  0  0  0  0
  5  1  2  0  0  0  0
  5 25  1  0  0  0  0
  6  3  1  0  0  0  0
  7  6  1  0  0  0  0
  8  7  2  0  0  0  0
  9 10  2  0  0  0  0
  9  8  1  0  0  0  0
 10 11  1  0  0  0  0
 11  6  2  0  0  0  0
 12 13  1  0  0  0  0
 14 13  2  0  0  0  0
 15 13  1  6  0  0  0
 15 21  1  0  0  0  0
 15 16  1  0  0  0  0
 16 17  1  0  0  0  0
 17 18  1  0  0  0  0
 18 19  1  1  0  0  0
 20 18  1  0  0  0  0
 21 20  1  0  0  0  0
 22 23  1  0  0  0  0
 23 12  1  0  0  0  0
 24 23  1  0  0  0  0
 25 27  1  0  0  0  0
 26 25  2  0  0  0  0
M  END
>  <minimizedAffinity>
-3.68936563

$$$$
