
 OpenBabel09092210413D

 27 29  0  0  1  0  0  0  0  0999 V2000
    1.4570    4.1980   -0.9070 C   0  0  0  0  0  0  0  0  0  0  0  0
    1.5230    4.8020   -2.2080 C   0  0  0  0  0  3  0  0  0  0  0  0
    2.7860    5.2400   -2.5510 C   0  0  0  0  0  0  0  0  0  0  0  0
    3.8980    4.9100   -1.2940 S   0  0  0  0  0  0  0  0  0  0  0  0
    2.7200    4.1010   -0.3380 C   0  0  0  0  0  0  0  0  0  0  0  0
    3.2140    5.9390   -3.7690 C   0  0  0  0  0  0  0  0  0  0  0  0
    3.6340    7.2780   -3.7380 C   0  0  0  0  0  3  0  0  0  0  0  0
    4.0570    7.9230   -4.9050 C   0  0  0  0  0  3  0  0  0  0  0  0
    4.0690    7.2350   -6.1160 C   0  0  0  0  0  3  0  0  0  0  0  0
    3.6580    5.9060   -6.1640 C   0  0  0  0  0  3  0  0  0  0  0  0
    3.2360    5.2610   -4.9970 C   0  0  0  0  0  3  0  0  0  0  0  0
    0.2420    3.7360   -0.3390 N   0  0  0  0  0  0  0  0  0  0  0  0
   -0.3730    4.6180    0.5630 C   0  0  0  0  0  0  0  0  0  0  0  0
   -0.0740    5.8220    0.6180 O   0  0  0  0  0  0  0  0  0  0  0  0
   -1.5020    4.1120    1.4690 C   0  0  1  0  0  3  0  0  0  0  0  0
   -1.0060    3.9490    2.9100 C   0  0  0  0  0  2  0  0  0  0  0  0
   -2.1270    3.5100    3.8530 C   0  0  0  0  0  2  0  0  0  0  0  0
   -3.3270    4.4620    3.7990 C   0  0  2  0  0  3  0  0  0  0  0  0
   -4.4530    3.9630    4.7020 C   0  0  0  0  0  1  0  0  0  0  0  0
   -3.8220    4.6320    2.3570 C   0  0  0  0  0  2  0  0  0  0  0  0
   -2.6960    5.0830    1.4310 C   0  0  0  0  0  2  0  0  0  0  0  0
   -0.1720    1.2750    0.1160 C   0  0  0  0  0  1  0  0  0  0  0  0
   -0.2990    2.4520   -0.8510 C   0  0  0  0  0  3  0  0  0  0  0  0
   -1.7000    2.5900   -1.4490 C   0  0  0  0  0  1  0  0  0  0  0  0
    3.0940    3.3430    0.8940 C   0  0  0  0  0  0  0  0  0  0  0  0
    3.1580    3.9960    1.9850 O   0  0  0  0  0  1  0  0  0  0  0  0
    3.3940    2.1130    0.7680 O   0  0  0  0  0  0  0  0  0  0  0  0
  1 12  1  0  0  0  0
  1  5  2  0  0  0  0
  2  1  1  0  0  0  0
  3  2  2  0  0  0  0
  3  4  1  0  0  0  0
  4  5  1  0  0  0  0
  5 25  1  0  0  0  0
  6  7  1  0  0  0  0
  6  3  1  0  0  0  0
  8  7  2  0  0  0  0
  9  8  1  0  0  0  0
 10  9  2  0  0  0  0
 10 11  1  0  0  0  0
 11  6  2  0  0  0  0
 12 13  1  0  0  0  0
 13 14  2  0  0  0  0
 15 13  1  6  0  0  0
 15 16  1  0  0  0  0
 16 17  1  0  0  0  0
 18 17  1  0  0  0  0
 18 19  1  1  0  0  0
 20 18  1  0  0  0  0
 21 15  1  0  0  0  0
 21 20  1  0  0  0  0
 23 12  1  0  0  0  0
 23 22  1  0  0  0  0
 24 23  1  0  0  0  0
 25 26  1  0  0  0  0
 27 25  2  0  0  0  0
M  END
>  <minimizedAffinity>
-3.36778307

$$$$
