
 OpenBabel09132204463D

 39 42  0  0  1  0  0  0  0  0999 V2000
    6.2290   -4.1010    4.6860 C   0  0  0  0  0  0  0  0  0  0  0  0
    7.3130   -4.2680    3.9690 N   0  0  0  0  0  0  0  0  0  0  0  0
    8.6230   -3.3430    3.9830 S   0  0  0  0  0  0  0  0  0  0  0  0
    9.6920   -4.0430    4.6680 O   0  0  0  0  0  0  0  0  0  0  0  0
    8.8350   -2.8230    2.6480 O   0  0  0  0  0  0  0  0  0  0  0  0
    8.2410   -1.9470    4.9870 C   0  0  0  0  0  0  0  0  0  0  0  0
    9.1510   -0.8910    5.0630 C   0  0  0  0  0  3  0  0  0  0  0  0
    8.8210    0.2170    5.8330 C   0  0  0  0  0  0  0  0  0  0  0  0
    7.6330    0.2450    6.5600 C   0  0  0  0  0  3  0  0  0  0  0  0
    6.7380   -0.8260    6.4740 C   0  0  0  0  0  3  0  0  0  0  0  0
    7.0300   -1.9330    5.6710 C   0  0  0  0  0  0  0  0  0  0  0  0
    6.1270   -2.9810    5.5420 N   0  0  0  0  0  0  0  0  0  0  0  0
    7.3490   -5.0680    3.3450 H   0  0  0  0  0  0  0  0  0  0  0  0
    5.2520   -2.9270    6.0680 H   0  0  0  0  0  0  0  0  0  0  0  0
    4.1330   -7.0200    3.3530 N   0  0  0  0  0  0  0  0  0  0  0  0
    5.1790   -6.1370    3.5190 C   0  0  0  0  0  0  0  0  0  0  0  0
    6.2120   -6.1760    2.8430 O   0  0  0  0  0  0  0  0  0  0  0  0
    5.0780   -5.0770    4.5720 C   0  0  0  0  0  0  0  0  0  0  0  0
    3.9770   -5.0410    5.3460 C   0  0  1  0  0  3  0  0  0  0  0  0
    2.8520   -5.9640    5.1240 C   0  0  0  0  0  0  0  0  0  0  0  0
    1.6390   -5.8830    5.8260 C   0  0  0  0  0  3  0  0  0  0  0  0
    0.6140   -6.7860    5.5630 C   0  0  0  0  0  3  0  0  0  0  0  0
    0.8230   -7.7410    4.5920 C   0  0  0  0  0  3  0  0  0  0  0  0
    1.9630   -7.8310    3.8780 N   0  0  0  0  0  0  0  0  0  0  0  0
    2.9570   -6.9500    4.1360 C   0  0  0  0  0  0  0  0  0  0  0  0
    3.8720   -4.1340    6.3910 O   0  0  0  0  0  0  0  0  0  0  0  0
    3.3390   -4.5350    7.1030 H   0  0  0  0  0  0  0  0  0  0  0  0
    4.2280   -8.0390    2.3020 C   0  0  0  0  0  2  0  0  0  0  0  0
    3.6230   -7.5910    0.9630 C   0  0  0  0  0  2  0  0  0  0  0  0
    4.7840   -5.6090   -0.1360 C   0  0  0  0  0  1  0  0  0  0  0  0
    4.6390   -7.1320   -0.1000 C   0  0  0  0  0  3  0  0  0  0  0  0
    6.0050   -7.7610    0.1850 C   0  0  0  0  0  1  0  0  0  0  0  0
    9.6990    1.2560    5.9490 O   0  0  0  0  0  0  0  0  0  0  0  0
    9.1140    2.4830    5.5170 C   0  0  0  0  0  2  0  0  0  0  0  0
    9.4650    2.9060    4.0860 C   0  0  0  0  0  0  0  0  0  0  0  0
    9.6780    4.2450    3.9130 N   0  0  0  0  0  0  0  0  0  0  0  0
    9.5520    2.1400    3.1310 O   0  0  0  0  0  0  0  0  0  0  0  0
    9.9140    4.5620    2.9800 H   0  0  0  0  0  0  0  0  0  0  0  0
    9.6360    4.9260    4.6580 H   0  0  0  0  0  0  0  0  0  0  0  0
  1 12  1  0  0  0  0
  2  3  1  0  0  0  0
  2  1  1  0  0  0  0
  3  4  2  0  0  0  0
  3  6  1  0  0  0  0
  5  3  2  0  0  0  0
  6  7  2  0  0  0  0
  6 11  1  0  0  0  0
  7  8  1  0  0  0  0
  8 33  1  0  0  0  0
  8  9  2  0  0  0  0
 10  9  1  0  0  0  0
 11 10  2  0  0  0  0
 12 11  1  0  0  0  0
 12 14  1  0  0  0  0
 13  2  1  0  0  0  0
 15 16  1  0  0  0  0
 15 25  1  0  0  0  0
 16 18  1  0  0  0  0
 17 16  2  0  0  0  0
 18  1  2  0  0  0  0
 18 19  1  0  0  0  0
 19 26  1  1  0  0  0
 20 19  1  0  0  0  0
 20 21  1  0  0  0  0
 22 21  2  0  0  0  0
 23 22  1  0  0  0  0
 24 25  1  0  0  0  0
 24 23  2  0  0  0  0
 25 20  2  0  0  0  0
 26 27  1  0  0  0  0
 28 15  1  0  0  0  0
 29 28  1  0  0  0  0
 30 31  1  0  0  0  0
 31 32  1  0  0  0  0
 31 29  1  0  0  0  0
 34 33  1  0  0  0  0
 35 34  1  0  0  0  0
 36 35  1  0  0  0  0
 36 39  1  0  0  0  0
 37 35  2  0  0  0  0
 38 36  1  0  0  0  0
M  END
>  <minimizedAffinity>
3.16105199

$$$$
