
 OpenBabel09132204463D

 39 42  0  0  1  0  0  0  0  0999 V2000
    4.2040   -5.8320    3.1740 C   0  0  0  0  0  0  0  0  0  0  0  0
    4.4770   -6.7520    2.2810 N   0  0  0  0  0  0  0  0  0  0  0  0
    5.8020   -6.8530    1.3840 S   0  0  0  0  0  0  0  0  0  0  0  0
    6.6280   -7.9390    1.8760 O   0  0  0  0  0  0  0  0  0  0  0  0
    5.4190   -6.8100   -0.0120 O   0  0  0  0  0  0  0  0  0  0  0  0
    6.7200   -5.3790    1.6770 C   0  0  0  0  0  0  0  0  0  0  0  0
    7.8600   -5.1210    0.9130 C   0  0  0  0  0  3  0  0  0  0  0  0
    8.5550   -3.9390    1.1330 C   0  0  0  0  0  0  0  0  0  0  0  0
    8.1550   -3.0590    2.1360 C   0  0  0  0  0  3  0  0  0  0  0  0
    7.0120   -3.3390    2.8940 C   0  0  0  0  0  3  0  0  0  0  0  0
    6.2730   -4.5030    2.6600 C   0  0  0  0  0  0  0  0  0  0  0  0
    5.1120   -4.7680    3.3750 N   0  0  0  0  0  0  0  0  0  0  0  0
    3.7960   -7.4930    2.1410 H   0  0  0  0  0  0  0  0  0  0  0  0
    4.8260   -4.0960    4.0900 H   0  0  0  0  0  0  0  0  0  0  0  0
    1.4650   -4.7640    5.6320 N   0  0  0  0  0  0  0  0  0  0  0  0
    2.6110   -4.7340    4.8670 C   0  0  0  0  0  0  0  0  0  0  0  0
    3.4150   -3.7960    4.8860 O   0  0  0  0  0  0  0  0  0  0  0  0
    2.9100   -5.8850    3.9570 C   0  0  0  0  0  0  0  0  0  0  0  0
    2.0290   -6.9010    3.8920 C   0  0  1  0  0  3  0  0  0  0  0  0
    0.8320   -6.9340    4.7490 C   0  0  0  0  0  0  0  0  0  0  0  0
   -0.0470   -8.0280    4.8020 C   0  0  0  0  0  3  0  0  0  0  0  0
   -1.1580   -7.9950    5.6380 C   0  0  0  0  0  3  0  0  0  0  0  0
   -1.3540   -6.8740    6.4140 C   0  0  0  0  0  3  0  0  0  0  0  0
   -0.5170   -5.8170    6.4110 N   0  0  0  0  0  0  0  0  0  0  0  0
    0.5640   -5.8540    5.5970 C   0  0  0  0  0  0  0  0  0  0  0  0
    2.2160   -7.9490    3.0020 O   0  0  0  0  0  0  0  0  0  0  0  0
    1.3430   -8.2790    2.7180 H   0  0  0  0  0  0  0  0  0  0  0  0
    1.1920   -3.6450    6.5400 C   0  0  0  0  0  2  0  0  0  0  0  0
    1.1680   -2.2800    5.8350 C   0  0  0  0  0  2  0  0  0  0  0  0
    3.4750   -1.4800    6.5610 C   0  0  0  0  0  1  0  0  0  0  0  0
    1.9780   -1.1660    6.5260 C   0  0  0  0  0  3  0  0  0  0  0  0
    1.7580    0.1620    5.7970 C   0  0  0  0  0  1  0  0  0  0  0  0
    9.6880   -3.6680    0.4210 O   0  0  0  0  0  0  0  0  0  0  0  0
    9.4880   -2.5840   -0.4840 C   0  0  0  0  0  2  0  0  0  0  0  0
    9.5250   -1.1880    0.1490 C   0  0  0  0  0  0  0  0  0  0  0  0
    9.6910   -0.1570   -0.7320 N   0  0  0  0  0  0  0  0  0  0  0  0
    9.4250   -0.9620    1.3500 O   0  0  0  0  0  0  0  0  0  0  0  0
    9.7180    0.7820   -0.3510 H   0  0  0  0  0  0  0  0  0  0  0  0
    9.7650   -0.2730   -1.7330 H   0  0  0  0  0  0  0  0  0  0  0  0
  1 12  1  0  0  0  0
  1 18  2  0  0  0  0
  2  1  1  0  0  0  0
  3  6  1  0  0  0  0
  3  4  2  0  0  0  0
  3  2  1  0  0  0  0
  5  3  2  0  0  0  0
  6 11  1  0  0  0  0
  7  8  1  0  0  0  0
  7  6  2  0  0  0  0
  8  9  2  0  0  0  0
  9 10  1  0  0  0  0
 11 10  2  0  0  0  0
 11 12  1  0  0  0  0
 12 14  1  0  0  0  0
 13  2  1  0  0  0  0
 15 28  1  0  0  0  0
 16 17  2  0  0  0  0
 16 15  1  0  0  0  0
 18 16  1  0  0  0  0
 19 26  1  6  0  0  0
 19 18  1  0  0  0  0
 19 20  1  0  0  0  0
 20 21  2  0  0  0  0
 20 25  1  0  0  0  0
 21 22  1  0  0  0  0
 22 23  2  0  0  0  0
 24 23  1  0  0  0  0
 25 15  1  0  0  0  0
 25 24  2  0  0  0  0
 27 26  1  0  0  0  0
 29 31  1  0  0  0  0
 29 28  1  0  0  0  0
 31 30  1  0  0  0  0
 32 31  1  0  0  0  0
 33  8  1  0  0  0  0
 34 35  1  0  0  0  0
 34 33  1  0  0  0  0
 35 37  2  0  0  0  0
 36 38  1  0  0  0  0
 36 35  1  0  0  0  0
 39 36  1  0  0  0  0
M  END
>  <minimizedAffinity>
1.33151984

$$$$
