
 OpenBabel09122222393D

 36 40  0  0  1  0  0  0  0  0999 V2000
    6.6910   -6.0250    0.2190 C   0  0  0  0  0  0  0  0  0  0  0  0
    7.4360   -5.4690   -0.8250 C   0  0  0  0  0  3  0  0  0  0  0  0
    8.3320   -4.4200   -0.5910 C   0  0  0  0  0  3  0  0  0  0  0  0
    8.4310   -3.9370    0.7220 C   0  0  0  0  0  0  0  0  0  0  0  0
    7.6790   -4.4670    1.7630 C   0  0  0  0  0  0  0  0  0  0  0  0
    6.7840   -5.5180    1.5210 C   0  0  0  0  0  3  0  0  0  0  0  0
    7.9560   -3.8230    2.9350 N   0  0  0  0  0  0  0  0  0  0  0  0
    8.8990   -2.9270    2.6720 C   0  0  0  0  0  0  0  0  0  0  0  0
    9.1710   -2.9170    1.3090 N   0  0  0  0  0  0  0  0  0  0  0  0
    9.4920   -2.0890    3.7240 C   0  0  0  0  0  0  0  0  0  0  0  0
   10.1710   -2.6800    4.7880 C   0  0  0  0  0  3  0  0  0  0  0  0
   10.7620   -1.8670    5.7510 C   0  0  0  0  0  3  0  0  0  0  0  0
   10.6720   -0.4880    5.6210 C   0  0  0  0  0  3  0  0  0  0  0  0
    9.9920    0.0190    4.5270 C   0  0  0  0  0  3  0  0  0  0  0  0
    9.4020   -0.7470    3.5820 N   0  0  0  0  0  0  0  0  0  0  0  0
    9.9970   -1.9960    0.5290 C   0  0  0  0  0  3  0  0  0  0  0  0
   10.5210   -2.5570   -0.8060 C   0  0  0  0  0  2  0  0  0  0  0  0
   11.4440   -1.5600   -1.5050 C   0  0  0  0  0  2  0  0  0  0  0  0
   10.7800   -0.1960   -1.6630 C   0  0  0  0  0  2  0  0  0  0  0  0
   10.3340    0.3700   -0.3190 C   0  0  0  0  0  2  0  0  0  0  0  0
    9.3980   -0.5860    0.4200 C   0  0  0  0  0  2  0  0  0  0  0  0
    5.4370   -7.3590   -1.2160 O   0  0  0  0  0  0  0  0  0  0  0  0
    5.7170   -7.1020   -0.0480 C   0  0  0  0  0  0  0  0  0  0  0  0
    5.1580   -7.7750    0.9990 N   0  0  0  0  0  0  0  0  0  0  0  0
    4.5740   -8.5770    0.7700 H   0  0  0  0  0  0  0  0  0  0  0  0
    5.1990   -7.5170    2.4620 C   0  0  2  0  0  3  0  0  0  0  0  0
    5.8100   -8.6950    3.2860 C   0  0  0  0  0  0  0  0  0  0  0  0
    6.9860   -9.0330    2.9670 O   0  0  0  0  0  0  0  0  0  0  0  0
    5.0340   -9.2030    4.1510 O   0  0  0  0  0  1  0  0  0  0  0  0
    3.8270   -7.1320    3.0380 C   0  0  0  0  0  2  0  0  0  0  0  0
    3.7850   -5.8380    3.8230 C   0  0  0  0  0  0  0  0  0  0  0  0
    3.5860   -5.8470    5.2100 C   0  0  0  0  0  3  0  0  0  0  0  0
    3.5550   -4.6520    5.9320 C   0  0  0  0  0  3  0  0  0  0  0  0
    3.7240   -3.4350    5.2740 C   0  0  0  0  0  3  0  0  0  0  0  0
    3.9270   -3.4140    3.8960 C   0  0  0  0  0  3  0  0  0  0  0  0
    3.9580   -4.6090    3.1740 C   0  0  0  0  0  3  0  0  0  0  0  0
  1  6  1  0  0  0  0
  2  3  1  0  0  0  0
  2  1  2  0  0  0  0
  3  4  2  0  0  0  0
  4  9  1  0  0  0  0
  4  5  1  0  0  0  0
  5  7  1  0  0  0  0
  6  5  2  0  0  0  0
  8  7  2  0  0  0  0
  8 10  1  0  0  0  0
  9  8  1  0  0  0  0
 10 11  1  0  0  0  0
 11 12  2  0  0  0  0
 13 12  1  0  0  0  0
 14 13  2  0  0  0  0
 15 10  2  0  0  0  0
 15 14  1  0  0  0  0
 16  9  1  0  0  0  0
 17 16  1  0  0  0  0
 18 17  1  0  0  0  0
 19 18  1  0  0  0  0
 19 20  1  0  0  0  0
 20 21  1  0  0  0  0
 21 16  1  0  0  0  0
 22 23  2  0  0  0  0
 23  1  1  0  0  0  0
 23 24  1  0  0  0  0
 24 26  1  0  0  0  0
 25 24  1  0  0  0  0
 26 30  1  1  0  0  0
 26 27  1  0  0  0  0
 27 29  1  0  0  0  0
 28 27  2  0  0  0  0
 30 31  1  0  0  0  0
 31 32  1  0  0  0  0
 32 33  2  0  0  0  0
 34 33  1  0  0  0  0
 35 34  2  0  0  0  0
 36 31  2  0  0  0  0
 36 35  1  0  0  0  0
M  END
>  <minimizedAffinity>
-9.33529186

$$$$
