
 OpenBabel09122222393D

 36 40  0  0  1  0  0  0  0  0999 V2000
    8.5340   -4.2360    0.5830 C   0  0  0  0  0  0  0  0  0  0  0  0
    8.0640   -5.3610   -0.1000 C   0  0  0  0  0  3  0  0  0  0  0  0
    6.9610   -6.0810    0.3710 C   0  0  0  0  0  3  0  0  0  0  0  0
    6.3660   -5.6410    1.5640 C   0  0  0  0  0  0  0  0  0  0  0  0
    6.8390   -4.5380    2.2630 C   0  0  0  0  0  0  0  0  0  0  0  0
    7.9440   -3.8220    1.7840 C   0  0  0  0  0  3  0  0  0  0  0  0
    6.0940   -4.3220    3.3860 N   0  0  0  0  0  0  0  0  0  0  0  0
    5.1300   -5.2350    3.3940 C   0  0  0  0  0  0  0  0  0  0  0  0
    5.3020   -6.1100    2.3280 N   0  0  0  0  0  0  0  0  0  0  0  0
    4.0920   -5.2630    4.4340 C   0  0  0  0  0  0  0  0  0  0  0  0
    2.8800   -4.6070    4.2280 C   0  0  0  0  0  3  0  0  0  0  0  0
    1.8920   -4.6810    5.2070 C   0  0  0  0  0  3  0  0  0  0  0  0
    2.1360   -5.4170    6.3580 C   0  0  0  0  0  3  0  0  0  0  0  0
    3.3610   -6.0500    6.4800 C   0  0  0  0  0  3  0  0  0  0  0  0
    4.3390   -5.9880    5.5480 N   0  0  0  0  0  0  0  0  0  0  0  0
    4.6060   -7.3590    2.0230 C   0  0  0  0  0  3  0  0  0  0  0  0
    3.6360   -7.8510    3.1120 C   0  0  0  0  0  2  0  0  0  0  0  0
    3.0260   -9.2030    2.7460 C   0  0  0  0  0  2  0  0  0  0  0  0
    2.3850   -9.1730    1.3620 C   0  0  0  0  0  2  0  0  0  0  0  0
    3.3850   -8.7510    0.2900 C   0  0  0  0  0  2  0  0  0  0  0  0
    4.0190   -7.3960    0.6040 C   0  0  0  0  0  2  0  0  0  0  0  0
   10.3080   -3.9430   -0.8940 O   0  0  0  0  0  0  0  0  0  0  0  0
    9.7260   -3.5110    0.0980 C   0  0  0  0  0  0  0  0  0  0  0  0
   10.1460   -2.3940    0.7590 N   0  0  0  0  0  0  0  0  0  0  0  0
   10.9050   -1.8660    0.3330 H   0  0  0  0  0  0  0  0  0  0  0  0
    9.7240   -1.8090    2.0580 C   0  0  2  0  0  3  0  0  0  0  0  0
    9.5260   -0.2610    2.0110 C   0  0  0  0  0  0  0  0  0  0  0  0
    9.3370    0.3000    3.1290 O   0  0  0  0  0  1  0  0  0  0  0  0
    9.5340    0.2460    0.8490 O   0  0  0  0  0  0  0  0  0  0  0  0
   10.6680   -2.1810    3.2140 C   0  0  0  0  0  2  0  0  0  0  0  0
   10.0400   -2.2070    4.5910 C   0  0  0  0  0  0  0  0  0  0  0  0
   10.7400   -1.7290    5.7070 C   0  0  0  0  0  3  0  0  0  0  0  0
   10.1540   -1.7480    6.9750 C   0  0  0  0  0  3  0  0  0  0  0  0
    8.8620   -2.2440    7.1400 C   0  0  0  0  0  3  0  0  0  0  0  0
    8.1550   -2.7180    6.0360 C   0  0  0  0  0  3  0  0  0  0  0  0
    8.7400   -2.6990    4.7690 C   0  0  0  0  0  3  0  0  0  0  0  0
  1  6  1  0  0  0  0
  2  3  1  0  0  0  0
  2  1  2  0  0  0  0
  3  4  2  0  0  0  0
  4  5  1  0  0  0  0
  4  9  1  0  0  0  0
  5  7  1  0  0  0  0
  6  5  2  0  0  0  0
  7  8  2  0  0  0  0
  8 10  1  0  0  0  0
  9  8  1  0  0  0  0
 10 15  1  0  0  0  0
 11 10  2  0  0  0  0
 11 12  1  0  0  0  0
 12 13  2  0  0  0  0
 13 14  1  0  0  0  0
 15 14  2  0  0  0  0
 16  9  1  0  0  0  0
 16 17  1  0  0  0  0
 18 17  1  0  0  0  0
 19 18  1  0  0  0  0
 20 21  1  0  0  0  0
 20 19  1  0  0  0  0
 21 16  1  0  0  0  0
 22 23  2  0  0  0  0
 23  1  1  0  0  0  0
 23 24  1  0  0  0  0
 24 26  1  0  0  0  0
 25 24  1  0  0  0  0
 26 30  1  1  0  0  0
 27 26  1  0  0  0  0
 27 28  1  0  0  0  0
 29 27  2  0  0  0  0
 30 31  1  0  0  0  0
 31 36  2  0  0  0  0
 31 32  1  0  0  0  0
 32 33  2  0  0  0  0
 33 34  1  0  0  0  0
 35 34  2  0  0  0  0
 36 35  1  0  0  0  0
M  END
>  <minimizedAffinity>
-7.33253336

$$$$
