
 OpenBabel09132204463D

 30 32  0  0  1  0  0  0  0  0999 V2000
    5.3770   -4.6970    4.6550 N   0  0  0  0  0  0  0  0  0  0  0  0
    4.8550   -4.6430    3.3620 C   0  0  0  0  0  0  0  0  0  0  0  0
    3.6870   -4.3980    3.0740 O   0  0  0  0  0  0  0  0  0  0  0  0
    5.7750   -4.7870    2.2190 C   0  0  0  0  0  0  0  0  0  0  0  0
    7.0560   -4.2250    2.3310 C   0  0  0  0  0  3  0  0  0  0  0  0
    7.9550   -4.3280    1.2690 C   0  0  0  0  0  3  0  0  0  0  0  0
    7.5650   -4.9750    0.0970 C   0  0  0  0  0  0  0  0  0  0  0  0
    8.6780   -5.1100   -1.2090 Cl  0  0  0  0  0  0  0  0  0  0  0  0
    6.2810   -5.5040   -0.0320 C   0  0  0  0  0  3  0  0  0  0  0  0
    5.3750   -5.4000    1.0280 C   0  0  0  0  0  0  0  0  0  0  0  0
    3.7970   -6.0550    0.7940 Cl  0  0  0  0  0  0  0  0  0  0  0  0
    4.4360   -4.5010    5.8120 C   0  0  2  0  0  3  0  0  0  0  0  0
    2.1520   -4.8140    6.5290 O   0  0  0  0  0  1  0  0  0  0  0  0
    3.0040   -5.1130    5.6420 C   0  0  0  0  0  0  0  0  0  0  0  0
    2.8950   -5.9580    4.7010 O   0  0  0  0  0  0  0  0  0  0  0  0
    4.3830   -3.0380    6.2930 C   0  0  0  0  0  2  0  0  0  0  0  0
    3.1860   -2.2690    5.7630 C   0  0  0  0  0  0  0  0  0  0  0  0
    2.7670   -2.4350    4.4370 C   0  0  0  0  0  3  0  0  0  0  0  0
    1.6810   -1.7140    3.9420 C   0  0  0  0  0  3  0  0  0  0  0  0
    1.0020   -0.8200    4.7700 C   0  0  0  0  0  3  0  0  0  0  0  0
    1.4070   -0.6510    6.0930 C   0  0  0  0  0  3  0  0  0  0  0  0
    2.4930   -1.3730    6.5880 C   0  0  0  0  0  3  0  0  0  0  0  0
    6.8040   -4.7840    4.9740 C   0  0  0  0  0  2  0  0  0  0  0  0
    7.5260   -3.4620    5.1070 C   0  0  0  0  0  0  0  0  0  0  0  0
    7.8900   -2.9600    6.3630 C   0  0  0  0  0  3  0  0  0  0  0  0
    8.5570   -1.7390    6.4810 C   0  0  0  0  0  3  0  0  0  0  0  0
    8.8610   -0.9970    5.3410 C   0  0  0  0  0  3  0  0  0  0  0  0
    8.4870   -1.4780    4.0900 C   0  0  0  0  0  0  0  0  0  0  0  0
    8.8630   -0.5700    2.6750 Cl  0  0  0  0  0  0  0  0  0  0  0  0
    7.8150   -2.6950    3.9680 C   0  0  0  0  0  3  0  0  0  0  0  0
  1 23  1  0  0  0  0
  1 12  1  0  0  0  0
  2  1  1  0  0  0  0
  3  2  2  0  0  0  0
  4  5  1  0  0  0  0
  4  2  1  0  0  0  0
  6  5  2  0  0  0  0
  7  6  1  0  0  0  0
  8  7  1  0  0  0  0
  9  7  2  0  0  0  0
  9 10  1  0  0  0  0
 10  4  2  0  0  0  0
 11 10  1  0  0  0  0
 12 16  1  6  0  0  0
 14 12  1  0  0  0  0
 14 13  1  0  0  0  0
 15 14  2  0  0  0  0
 17 16  1  0  0  0  0
 17 22  1  0  0  0  0
 18 17  2  0  0  0  0
 19 18  1  0  0  0  0
 19 20  2  0  0  0  0
 20 21  1  0  0  0  0
 21 22  2  0  0  0  0
 23 24  1  0  0  0  0
 24 25  1  0  0  0  0
 25 26  2  0  0  0  0
 27 26  1  0  0  0  0
 28 27  2  0  0  0  0
 29 28  1  0  0  0  0
 30 28  1  0  0  0  0
 30 24  2  0  0  0  0
M  END
>  <minimizedAffinity>
1.43966866

$$$$
