
 OpenBabel09092210413D

 43 48  0  0  0  0  0  0  0  0999 V2000
    3.5980   -5.7320  -12.6630 C   0  0  0  0  0  0  0  0  0  0  0  0
    4.5190   -5.6630  -11.6230 C   0  0  0  0  0  3  0  0  0  0  0  0
    4.2090   -4.9480  -10.4610 C   0  0  0  0  0  3  0  0  0  0  0  0
    2.9750   -4.2970  -10.3090 C   0  0  0  0  0  0  0  0  0  0  0  0
    2.0580   -4.3300  -11.3820 C   0  0  0  0  0  0  0  0  0  0  0  0
    2.3760   -5.0670  -12.5370 C   0  0  0  0  0  3  0  0  0  0  0  0
    0.7550   -3.6400  -11.3690 C   0  0  0  0  0  3  0  0  0  0  0  0
    0.5900   -2.4180  -10.8290 C   0  0  0  0  0  0  0  0  0  0  0  0
    1.6820   -1.6060  -10.1970 C   0  0  0  0  0  2  0  0  0  0  0  0
    2.1830   -2.2990   -9.0100 N   0  0  0  0  0  0  0  0  0  0  0  0
    2.7000   -3.5840   -9.0420 C   0  0  0  0  0  0  0  0  0  0  0  0
    2.8180   -4.0090   -7.7170 C   0  0  0  0  0  0  0  0  0  0  0  0
    2.4750   -2.8870   -6.8820 C   0  0  0  0  0  0  0  0  0  0  0  0
    2.4380   -2.6820   -5.4830 C   0  0  0  0  0  3  0  0  0  0  0  0
    2.0250   -1.4530   -4.9610 C   0  0  0  0  0  3  0  0  0  0  0  0
    1.6440   -0.4250   -5.8190 C   0  0  0  0  0  0  0  0  0  0  0  0
    1.7210   -0.5740   -7.2090 C   0  0  0  0  0  3  0  0  0  0  0  0
    2.1090   -1.8290   -7.7170 C   0  0  0  0  0  0  0  0  0  0  0  0
    1.2330    0.8570   -5.2220 C   0  0  0  0  0  0  0  0  0  0  0  0
    2.0630    1.6000   -4.7190 O   0  0  0  0  0  0  0  0  0  0  0  0
   -0.1370    1.1340   -5.0930 N   0  0  0  0  0  0  0  0  0  0  0  0
   -1.3480    0.7320   -6.1380 S   0  0  0  0  0  0  0  0  0  0  0  0
   -2.5730    1.2500   -5.5770 O   0  0  0  0  0  0  0  0  0  0  0  0
   -0.9180    1.1030   -7.4640 O   0  0  0  0  0  0  0  0  0  0  0  0
   -1.3780   -0.9400   -6.0080 N   0  0  0  0  0  0  0  0  0  0  0  0
   -1.8690   -1.4990   -4.7390 C   0  0  0  0  0  1  0  0  0  0  0  0
   -1.7690   -1.7070   -7.2170 C   0  0  0  0  0  2  0  0  0  0  0  0
   -3.2190   -1.4710   -7.6350 C   0  0  0  0  0  2  0  0  0  0  0  0
   -3.6940   -2.3970   -8.7640 C   0  0  0  0  0  2  0  0  0  0  0  0
   -3.0960   -2.0920  -10.1370 C   0  0  0  0  0  2  0  0  0  0  0  0
   -1.7310   -2.5550  -10.2670 N   0  0  0  0  0  0  0  0  0  0  0  0
   -0.7480   -1.7840  -10.8400 C   0  0  0  0  0  0  0  0  0  0  0  0
   -0.9010   -0.6490  -11.2670 O   0  0  0  0  0  0  0  0  0  0  0  0
   -0.3060    2.0510   -4.6870 H   0  0  0  0  0  0  0  0  0  0  0  0
   -1.5040   -3.4950   -9.9650 H   0  0  0  0  0  0  0  0  0  0  0  0
    3.2080   -5.3980   -7.2520 C   0  0  0  0  0  3  0  0  0  0  0  0
    4.5990   -5.4330   -6.5970 C   0  0  0  0  0  2  0  0  0  0  0  0
    4.9810   -6.8480   -6.1680 C   0  0  0  0  0  2  0  0  0  0  0  0
    3.9210   -7.4680   -5.2620 C   0  0  0  0  0  2  0  0  0  0  0  0
    2.5410   -7.4460   -5.9150 C   0  0  0  0  0  2  0  0  0  0  0  0
    2.1430   -6.0340   -6.3420 C   0  0  0  0  0  2  0  0  0  0  0  0
    4.8390   -5.9710  -14.6770 C   0  0  0  0  0  1  0  0  0  0  0  0
    3.7670   -6.3980  -13.8460 O   0  0  0  0  0  0  0  0  0  0  0  0
  1  6  2  0  0  0  0
  1  2  1  0  0  0  0
  2  3  2  0  0  0  0
  3  4  1  0  0  0  0
  4 11  1  0  0  0  0
  5  7  1  0  0  0  0
  5  4  2  0  0  0  0
  6  5  1  0  0  0  0
  7  8  2  0  0  0  0
  8  9  1  0  0  0  0
  9 10  1  0  0  0  0
 10 18  1  0  0  0  0
 11 10  1  0  0  0  0
 11 12  2  0  0  0  0
 12 36  1  0  0  0  0
 12 13  1  0  0  0  0
 13 14  1  0  0  0  0
 14 15  2  0  0  0  0
 16 19  1  0  0  0  0
 16 15  1  0  0  0  0
 17 16  2  0  0  0  0
 18 17  1  0  0  0  0
 18 13  2  0  0  0  0
 19 21  1  0  0  0  0
 19 20  2  0  0  0  0
 21 34  1  0  0  0  0
 22 25  1  0  0  0  0
 22 23  2  0  0  0  0
 22 21  1  0  0  0  0
 24 22  2  0  0  0  0
 25 26  1  0  0  0  0
 27 25  1  0  0  0  0
 28 27  1  0  0  0  0
 29 28  1  0  0  0  0
 30 29  1  0  0  0  0
 31 30  1  0  0  0  0
 31 35  1  0  0  0  0
 32  8  1  0  0  0  0
 32 31  1  0  0  0  0
 33 32  2  0  0  0  0
 36 37  1  0  0  0  0
 36 41  1  0  0  0  0
 37 38  1  0  0  0  0
 38 39  1  0  0  0  0
 40 39  1  0  0  0  0
 41 40  1  0  0  0  0
 42 43  1  0  0  0  0
 43  1  1  0  0  0  0
M  END
>  <minimizedAffinity>
-4.89926624

$$$$
