
 OpenBabel09092210413D

 43 48  0  0  0  0  0  0  0  0999 V2000
    5.5410   -5.0120   -0.7230 C   0  0  0  0  0  0  0  0  0  0  0  0
    5.8450   -6.0620   -1.5830 C   0  0  0  0  0  3  0  0  0  0  0  0
    5.2840   -6.1010   -2.8640 C   0  0  0  0  0  3  0  0  0  0  0  0
    4.4190   -5.0920   -3.3170 C   0  0  0  0  0  0  0  0  0  0  0  0
    4.0760   -4.0490   -2.4280 C   0  0  0  0  0  0  0  0  0  0  0  0
    4.6600   -4.0140   -1.1500 C   0  0  0  0  0  3  0  0  0  0  0  0
    3.1350   -2.9640   -2.7630 C   0  0  0  0  0  3  0  0  0  0  0  0
    2.0140   -3.1740   -3.4770 C   0  0  0  0  0  0  0  0  0  0  0  0
    1.5710   -4.5070   -4.0050 C   0  0  0  0  0  2  0  0  0  0  0  0
    2.5430   -4.9930   -4.9840 N   0  0  0  0  0  0  0  0  0  0  0  0
    3.8860   -5.1790   -4.6940 C   0  0  0  0  0  0  0  0  0  0  0  0
    4.5410   -5.3820   -5.9110 C   0  0  0  0  0  0  0  0  0  0  0  0
    3.5280   -5.4390   -6.9320 C   0  0  0  0  0  0  0  0  0  0  0  0
    3.5560   -5.6520   -8.3300 C   0  0  0  0  0  3  0  0  0  0  0  0
    2.3720   -5.6230   -9.0720 C   0  0  0  0  0  3  0  0  0  0  0  0
    1.1580   -5.3780   -8.4350 C   0  0  0  0  0  0  0  0  0  0  0  0
    1.0860   -5.2180   -7.0470 C   0  0  0  0  0  3  0  0  0  0  0  0
    2.2920   -5.2200   -6.3200 C   0  0  0  0  0  0  0  0  0  0  0  0
   -0.0650   -5.3750   -9.2580 C   0  0  0  0  0  0  0  0  0  0  0  0
   -0.5180   -6.4210   -9.6970 O   0  0  0  0  0  0  0  0  0  0  0  0
   -0.6020   -4.1430   -9.6630 N   0  0  0  0  0  0  0  0  0  0  0  0
   -0.6490   -2.7340   -8.8070 S   0  0  0  0  0  0  0  0  0  0  0  0
   -1.3150   -1.7610   -9.6390 O   0  0  0  0  0  0  0  0  0  0  0  0
   -1.1350   -3.0450   -7.4850 O   0  0  0  0  0  0  0  0  0  0  0  0
    0.9760   -2.3260   -8.7210 N   0  0  0  0  0  0  0  0  0  0  0  0
    1.6220   -1.9030   -9.9740 C   0  0  0  0  0  1  0  0  0  0  0  0
    1.4290   -1.5950   -7.5120 C   0  0  0  0  0  2  0  0  0  0  0  0
    0.8230   -0.1980   -7.3930 C   0  0  0  0  0  2  0  0  0  0  0  0
    1.4240    0.6400   -6.2560 C   0  0  0  0  0  2  0  0  0  0  0  0
    1.0290    0.1900   -4.8500 C   0  0  0  0  0  2  0  0  0  0  0  0
    1.7440   -0.9920   -4.4200 N   0  0  0  0  0  0  0  0  0  0  0  0
    1.1170   -2.0370   -3.7870 C   0  0  0  0  0  0  0  0  0  0  0  0
   -0.0800   -2.0990   -3.5450 O   0  0  0  0  0  0  0  0  0  0  0  0
   -1.4530   -4.2570  -10.2080 H   0  0  0  0  0  0  0  0  0  0  0  0
    2.7480   -1.0300   -4.5530 H   0  0  0  0  0  0  0  0  0  0  0  0
    6.0400   -5.4920   -6.1150 C   0  0  0  0  0  3  0  0  0  0  0  0
    6.8330   -4.5600   -5.1840 C   0  0  0  0  0  2  0  0  0  0  0  0
    8.3360   -4.6670   -5.4330 C   0  0  0  0  0  2  0  0  0  0  0  0
    8.8240   -6.1090   -5.3280 C   0  0  0  0  0  2  0  0  0  0  0  0
    8.0460   -7.0350   -6.2600 C   0  0  0  0  0  2  0  0  0  0  0  0
    6.5410   -6.9440   -6.0160 C   0  0  0  0  0  2  0  0  0  0  0  0
    6.5860   -3.5800    0.8610 C   0  0  0  0  0  1  0  0  0  0  0  0
    6.0200   -4.8460    0.5460 O   0  0  0  0  0  0  0  0  0  0  0  0
  1 43  1  0  0  0  0
  2  1  2  0  0  0  0
  3  2  1  0  0  0  0
  4  3  2  0  0  0  0
  4  5  1  0  0  0  0
  5  6  2  0  0  0  0
  6  1  1  0  0  0  0
  7  5  1  0  0  0  0
  8  7  2  0  0  0  0
  9  8  1  0  0  0  0
 10 11  1  0  0  0  0
 10  9  1  0  0  0  0
 11  4  1  0  0  0  0
 12 11  2  0  0  0  0
 13 18  1  0  0  0  0
 13 12  1  0  0  0  0
 14 13  2  0  0  0  0
 15 16  2  0  0  0  0
 15 14  1  0  0  0  0
 16 17  1  0  0  0  0
 17 18  2  0  0  0  0
 18 10  1  0  0  0  0
 19 16  1  0  0  0  0
 20 19  2  0  0  0  0
 21 19  1  0  0  0  0
 21 22  1  0  0  0  0
 22 25  1  0  0  0  0
 22 24  2  0  0  0  0
 23 22  2  0  0  0  0
 25 27  1  0  0  0  0
 26 25  1  0  0  0  0
 27 28  1  0  0  0  0
 28 29  1  0  0  0  0
 29 30  1  0  0  0  0
 30 31  1  0  0  0  0
 31 32  1  0  0  0  0
 32 33  2  0  0  0  0
 32  8  1  0  0  0  0
 34 21  1  0  0  0  0
 35 31  1  0  0  0  0
 36 41  1  0  0  0  0
 36 12  1  0  0  0  0
 36 37  1  0  0  0  0
 38 39  1  0  0  0  0
 38 37  1  0  0  0  0
 40 41  1  0  0  0  0
 40 39  1  0  0  0  0
 43 42  1  0  0  0  0
M  END
>  <minimizedAffinity>
-5.23306274

$$$$
