
 OpenBabel09092210413D

 43 48  0  0  0  0  0  0  0  0999 V2000
   -0.2620   -0.7210   -2.7160 C   0  0  0  0  0  0  0  0  0  0  0  0
    0.2850   -0.4670   -3.9700 C   0  0  0  0  0  3  0  0  0  0  0  0
    1.3150   -1.2770   -4.4600 C   0  0  0  0  0  3  0  0  0  0  0  0
    1.8130   -2.3600   -3.7160 C   0  0  0  0  0  0  0  0  0  0  0  0
    1.2870   -2.5900   -2.4260 C   0  0  0  0  0  0  0  0  0  0  0  0
    0.2410   -1.7780   -1.9540 C   0  0  0  0  0  3  0  0  0  0  0  0
    1.7640   -3.6560   -1.5260 C   0  0  0  0  0  3  0  0  0  0  0  0
    3.0650   -3.9840   -1.4180 C   0  0  0  0  0  0  0  0  0  0  0  0
    4.1810   -3.3170   -2.1670 C   0  0  0  0  0  2  0  0  0  0  0  0
    4.0180   -3.5550   -3.6010 N   0  0  0  0  0  0  0  0  0  0  0  0
    2.8810   -3.1940   -4.3070 C   0  0  0  0  0  0  0  0  0  0  0  0
    2.9660   -3.8100   -5.5580 C   0  0  0  0  0  0  0  0  0  0  0  0
    4.2540   -4.4500   -5.6270 C   0  0  0  0  0  0  0  0  0  0  0  0
    4.9290   -5.1880   -6.6270 C   0  0  0  0  0  3  0  0  0  0  0  0
    6.1980   -5.7170   -6.3770 C   0  0  0  0  0  3  0  0  0  0  0  0
    6.8030   -5.5210   -5.1380 C   0  0  0  0  0  0  0  0  0  0  0  0
    6.1880   -4.7490   -4.1450 C   0  0  0  0  0  3  0  0  0  0  0  0
    4.8970   -4.2500   -4.4030 C   0  0  0  0  0  0  0  0  0  0  0  0
    8.1480   -6.0830   -4.9290 C   0  0  0  0  0  0  0  0  0  0  0  0
    9.1210   -5.5780   -5.4690 O   0  0  0  0  0  0  0  0  0  0  0  0
    8.2730   -7.2970   -4.2350 N   0  0  0  0  0  0  0  0  0  0  0  0
    7.3770   -7.8210   -2.9530 S   0  0  0  0  0  0  0  0  0  0  0  0
    7.8950   -9.1170   -2.5830 O   0  0  0  0  0  0  0  0  0  0  0  0
    7.3130   -6.7420   -1.9990 O   0  0  0  0  0  0  0  0  0  0  0  0
    5.8680   -8.0400   -3.6500 N   0  0  0  0  0  0  0  0  0  0  0  0
    5.7290   -9.1560   -4.5980 C   0  0  0  0  0  1  0  0  0  0  0  0
    4.6830   -7.8070   -2.7880 C   0  0  0  0  0  2  0  0  0  0  0  0
    4.5670   -8.8100   -1.6420 C   0  0  0  0  0  2  0  0  0  0  0  0
    3.2520   -8.7020   -0.8580 C   0  0  0  0  0  2  0  0  0  0  0  0
    3.1310   -7.4600    0.0250 C   0  0  0  0  0  2  0  0  0  0  0  0
    2.8330   -6.2640   -0.7330 N   0  0  0  0  0  0  0  0  0  0  0  0
    3.4750   -5.0710   -0.5010 C   0  0  0  0  0  0  0  0  0  0  0  0
    4.3590   -4.8950    0.3250 O   0  0  0  0  0  0  0  0  0  0  0  0
    9.2440   -7.5820   -4.1320 H   0  0  0  0  0  0  0  0  0  0  0  0
    2.0960   -6.2970   -1.4280 H   0  0  0  0  0  0  0  0  0  0  0  0
    1.8900   -3.8230   -6.6260 C   0  0  0  0  0  3  0  0  0  0  0  0
    2.2910   -3.0230   -7.8770 C   0  0  0  0  0  2  0  0  0  0  0  0
    1.1780   -3.0240   -8.9230 C   0  0  0  0  0  2  0  0  0  0  0  0
    0.7420   -4.4420   -9.2810 C   0  0  0  0  0  2  0  0  0  0  0  0
    0.3320   -5.2350   -8.0420 C   0  0  0  0  0  2  0  0  0  0  0  0
    1.4400   -5.2490   -6.9910 C   0  0  0  0  0  2  0  0  0  0  0  0
   -0.9430    0.7060   -0.9410 C   0  0  0  0  0  1  0  0  0  0  0  0
   -1.2710   -0.0160   -2.1200 O   0  0  0  0  0  0  0  0  0  0  0  0
  1 43  1  0  0  0  0
  1  6  1  0  0  0  0
  2  1  2  0  0  0  0
  3  2  1  0  0  0  0
  3  4  2  0  0  0  0
  4  5  1  0  0  0  0
  5  6  2  0  0  0  0
  5  7  1  0  0  0  0
  7  8  2  0  0  0  0
  8 32  1  0  0  0  0
  9  8  1  0  0  0  0
 10  9  1  0  0  0  0
 11  4  1  0  0  0  0
 11 10  1  0  0  0  0
 12 11  2  0  0  0  0
 13 12  1  0  0  0  0
 13 18  1  0  0  0  0
 14 15  1  0  0  0  0
 14 13  2  0  0  0  0
 15 16  2  0  0  0  0
 16 19  1  0  0  0  0
 16 17  1  0  0  0  0
 18 17  2  0  0  0  0
 18 10  1  0  0  0  0
 19 21  1  0  0  0  0
 20 19  2  0  0  0  0
 21 34  1  0  0  0  0
 21 22  1  0  0  0  0
 22 23  2  0  0  0  0
 22 24  2  0  0  0  0
 25 22  1  0  0  0  0
 25 27  1  0  0  0  0
 26 25  1  0  0  0  0
 27 28  1  0  0  0  0
 28 29  1  0  0  0  0
 29 30  1  0  0  0  0
 31 32  1  0  0  0  0
 31 30  1  0  0  0  0
 32 33  2  0  0  0  0
 35 31  1  0  0  0  0
 36 12  1  0  0  0  0
 37 36  1  0  0  0  0
 38 37  1  0  0  0  0
 39 38  1  0  0  0  0
 39 40  1  0  0  0  0
 40 41  1  0  0  0  0
 41 36  1  0  0  0  0
 43 42  1  0  0  0  0
M  END
>  <minimizedAffinity>
-4.86326933

$$$$
