
 OpenBabel09092210413D

 43 48  0  0  0  0  0  0  0  0999 V2000
    8.4510   -7.0380   -6.1950 C   0  0  0  0  0  0  0  0  0  0  0  0
    8.3080   -5.8780   -5.4400 C   0  0  0  0  0  3  0  0  0  0  0  0
    7.0860   -5.1970   -5.4290 C   0  0  0  0  0  3  0  0  0  0  0  0
    5.9810   -5.6620   -6.1600 C   0  0  0  0  0  0  0  0  0  0  0  0
    6.1390   -6.8140   -6.9610 C   0  0  0  0  0  0  0  0  0  0  0  0
    7.3670   -7.4980   -6.9490 C   0  0  0  0  0  3  0  0  0  0  0  0
    5.0750   -7.3680   -7.8180 C   0  0  0  0  0  3  0  0  0  0  0  0
    4.2330   -6.5880   -8.5210 C   0  0  0  0  0  0  0  0  0  0  0  0
    4.2710   -5.0880   -8.5410 C   0  0  0  0  0  2  0  0  0  0  0  0
    3.9740   -4.5740   -7.2050 N   0  0  0  0  0  0  0  0  0  0  0  0
    4.7100   -4.9090   -6.0800 C   0  0  0  0  0  0  0  0  0  0  0  0
    3.9880   -4.4630   -4.9710 C   0  0  0  0  0  0  0  0  0  0  0  0
    2.8530   -3.7320   -5.4730 C   0  0  0  0  0  0  0  0  0  0  0  0
    1.7940   -3.0240   -4.8590 C   0  0  0  0  0  3  0  0  0  0  0  0
    0.8000   -2.4260   -5.6390 C   0  0  0  0  0  3  0  0  0  0  0  0
    0.8490   -2.5280   -7.0270 C   0  0  0  0  0  0  0  0  0  0  0  0
    1.9120   -3.1730   -7.6700 C   0  0  0  0  0  3  0  0  0  0  0  0
    2.8860   -3.7960   -6.8680 C   0  0  0  0  0  0  0  0  0  0  0  0
   -0.2110   -1.8650   -7.8060 C   0  0  0  0  0  0  0  0  0  0  0  0
   -0.2350   -0.6470   -7.9080 O   0  0  0  0  0  0  0  0  0  0  0  0
   -1.2790   -2.6380   -8.2870 N   0  0  0  0  0  0  0  0  0  0  0  0
   -1.2260   -4.1870   -8.8530 S   0  0  0  0  0  0  0  0  0  0  0  0
   -2.5710   -4.5340   -9.2470 O   0  0  0  0  0  0  0  0  0  0  0  0
   -0.1290   -4.2710   -9.7850 O   0  0  0  0  0  0  0  0  0  0  0  0
   -0.8470   -5.0500   -7.4650 N   0  0  0  0  0  0  0  0  0  0  0  0
   -1.8900   -5.1360   -6.4310 C   0  0  0  0  0  1  0  0  0  0  0  0
   -0.0370   -6.2810   -7.6330 C   0  0  0  0  0  2  0  0  0  0  0  0
   -0.7630   -7.3780   -8.4090 C   0  0  0  0  0  2  0  0  0  0  0  0
   -0.0170   -8.7190   -8.4270 C   0  0  0  0  0  2  0  0  0  0  0  0
    1.2430   -8.7400   -9.2930 C   0  0  0  0  0  2  0  0  0  0  0  0
    2.3620   -8.0710   -8.6650 N   0  0  0  0  0  0  0  0  0  0  0  0
    3.1800   -7.2090   -9.3560 C   0  0  0  0  0  0  0  0  0  0  0  0
    3.0450   -6.8980  -10.5310 O   0  0  0  0  0  0  0  0  0  0  0  0
   -1.9410   -2.0850   -8.8260 H   0  0  0  0  0  0  0  0  0  0  0  0
    2.5750   -8.2800   -7.6970 H   0  0  0  0  0  0  0  0  0  0  0  0
    4.3250   -4.7240   -3.5160 C   0  0  0  0  0  3  0  0  0  0  0  0
    4.5900   -3.4290   -2.7300 C   0  0  0  0  0  2  0  0  0  0  0  0
    4.9590   -3.7210   -1.2780 C   0  0  0  0  0  2  0  0  0  0  0  0
    3.9070   -4.5870   -0.5910 C   0  0  0  0  0  2  0  0  0  0  0  0
    3.6510   -5.8800   -1.3630 C   0  0  0  0  0  2  0  0  0  0  0  0
    3.2720   -5.6010   -2.8170 C   0  0  0  0  0  2  0  0  0  0  0  0
    9.7500   -8.5510   -7.4880 C   0  0  0  0  0  1  0  0  0  0  0  0
    9.5800   -7.8030   -6.2910 O   0  0  0  0  0  0  0  0  0  0  0  0
  1  2  1  0  0  0  0
  2  3  2  0  0  0  0
  4 11  1  0  0  0  0
  4  3  1  0  0  0  0
  5  6  1  0  0  0  0
  5  4  2  0  0  0  0
  6  1  2  0  0  0  0
  7  5  1  0  0  0  0
  8  7  2  0  0  0  0
  9  8  1  0  0  0  0
  9 10  1  0  0  0  0
 10 18  1  0  0  0  0
 10 11  1  0  0  0  0
 11 12  2  0  0  0  0
 12 36  1  0  0  0  0
 13 12  1  0  0  0  0
 13 14  1  0  0  0  0
 15 14  2  0  0  0  0
 16 15  1  0  0  0  0
 17 16  2  0  0  0  0
 17 18  1  0  0  0  0
 18 13  2  0  0  0  0
 19 16  1  0  0  0  0
 20 19  2  0  0  0  0
 21 19  1  0  0  0  0
 22 21  1  0  0  0  0
 22 25  1  0  0  0  0
 23 22  2  0  0  0  0
 24 22  2  0  0  0  0
 25 26  1  0  0  0  0
 27 25  1  0  0  0  0
 28 27  1  0  0  0  0
 29 28  1  0  0  0  0
 30 31  1  0  0  0  0
 30 29  1  0  0  0  0
 31 35  1  0  0  0  0
 32 31  1  0  0  0  0
 32  8  1  0  0  0  0
 33 32  2  0  0  0  0
 34 21  1  0  0  0  0
 36 41  1  0  0  0  0
 36 37  1  0  0  0  0
 37 38  1  0  0  0  0
 38 39  1  0  0  0  0
 40 39  1  0  0  0  0
 41 40  1  0  0  0  0
 42 43  1  0  0  0  0
 43  1  1  0  0  0  0
M  END
>  <minimizedAffinity>
-4.97666359

$$$$
