
 OpenBabel09092210413D

 43 48  0  0  0  0  0  0  0  0999 V2000
    4.6950   -4.4070    0.5490 C   0  0  0  0  0  0  0  0  0  0  0  0
    5.1290   -5.5700   -0.0780 C   0  0  0  0  0  3  0  0  0  0  0  0
    4.7890   -5.8150   -1.4120 C   0  0  0  0  0  3  0  0  0  0  0  0
    4.0170   -4.9030   -2.1500 C   0  0  0  0  0  0  0  0  0  0  0  0
    3.5390   -3.7430   -1.5010 C   0  0  0  0  0  0  0  0  0  0  0  0
    3.9040   -3.5030   -0.1650 C   0  0  0  0  0  3  0  0  0  0  0  0
    2.6750   -2.7400   -2.1480 C   0  0  0  0  0  3  0  0  0  0  0  0
    1.6860   -3.0760   -2.9970 C   0  0  0  0  0  0  0  0  0  0  0  0
    1.3270   -4.4820   -3.3790 C   0  0  0  0  0  2  0  0  0  0  0  0
    2.4440   -5.0940   -4.0980 N   0  0  0  0  0  0  0  0  0  0  0  0
    3.7190   -5.2090   -3.5660 C   0  0  0  0  0  0  0  0  0  0  0  0
    4.5650   -5.5830   -4.6130 C   0  0  0  0  0  0  0  0  0  0  0  0
    3.7330   -5.8140   -5.7660 C   0  0  0  0  0  0  0  0  0  0  0  0
    3.9910   -6.2380   -7.0900 C   0  0  0  0  0  3  0  0  0  0  0  0
    2.9460   -6.3440   -8.0120 C   0  0  0  0  0  3  0  0  0  0  0  0
    1.6450   -6.0270   -7.6300 C   0  0  0  0  0  0  0  0  0  0  0  0
    1.3460   -5.6580   -6.3130 C   0  0  0  0  0  3  0  0  0  0  0  0
    2.4140   -5.5270   -5.4060 C   0  0  0  0  0  0  0  0  0  0  0  0
    0.5750   -6.1720   -8.6320 C   0  0  0  0  0  0  0  0  0  0  0  0
    0.1930   -7.2810   -8.9740 O   0  0  0  0  0  0  0  0  0  0  0  0
    0.1210   -5.0270   -9.3050 N   0  0  0  0  0  0  0  0  0  0  0  0
   -0.0560   -3.5040   -8.6950 S   0  0  0  0  0  0  0  0  0  0  0  0
   -0.5680   -2.6830   -9.7650 O   0  0  0  0  0  0  0  0  0  0  0  0
   -0.7560   -3.6190   -7.4390 O   0  0  0  0  0  0  0  0  0  0  0  0
    1.5350   -3.0590   -8.4070 N   0  0  0  0  0  0  0  0  0  0  0  0
    2.3820   -2.8200   -9.5860 C   0  0  0  0  0  1  0  0  0  0  0  0
    1.7870   -2.1430   -7.2670 C   0  0  0  0  0  2  0  0  0  0  0  0
    1.1790   -0.7560   -7.4650 C   0  0  0  0  0  2  0  0  0  0  0  0
    1.5900    0.2570   -6.3870 C   0  0  0  0  0  2  0  0  0  0  0  0
    0.9650    0.0200   -5.0130 C   0  0  0  0  0  2  0  0  0  0  0  0
    1.5910   -1.0700   -4.2950 N   0  0  0  0  0  0  0  0  0  0  0  0
    0.8600   -2.0170   -3.6200 C   0  0  0  0  0  0  0  0  0  0  0  0
   -0.3610   -2.0630   -3.5720 O   0  0  0  0  0  0  0  0  0  0  0  0
   -0.6290   -5.2380   -9.9580 H   0  0  0  0  0  0  0  0  0  0  0  0
    2.6030   -1.1080   -4.2530 H   0  0  0  0  0  0  0  0  0  0  0  0
    6.0750   -5.6960   -4.5480 C   0  0  0  0  0  3  0  0  0  0  0  0
    6.5650   -7.1460   -4.6920 C   0  0  0  0  0  2  0  0  0  0  0  0
    8.0860   -7.2360   -4.5900 C   0  0  0  0  0  2  0  0  0  0  0  0
    8.7740   -6.3120   -5.5910 C   0  0  0  0  0  2  0  0  0  0  0  0
    8.2980   -4.8680   -5.4430 C   0  0  0  0  0  2  0  0  0  0  0  0
    6.7780   -4.7630   -5.5510 C   0  0  0  0  0  2  0  0  0  0  0  0
    5.8800   -2.9750    2.0300 C   0  0  0  0  0  1  0  0  0  0  0  0
    4.9590   -4.0410    1.8400 O   0  0  0  0  0  0  0  0  0  0  0  0
  1 43  1  0  0  0  0
  2  1  1  0  0  0  0
  3  2  2  0  0  0  0
  4  5  2  0  0  0  0
  4  3  1  0  0  0  0
  5  6  1  0  0  0  0
  6  1  2  0  0  0  0
  7  5  1  0  0  0  0
  8  7  2  0  0  0  0
  9  8  1  0  0  0  0
 10 11  1  0  0  0  0
 10  9  1  0  0  0  0
 11  4  1  0  0  0  0
 12 36  1  0  0  0  0
 12 11  2  0  0  0  0
 13 18  1  0  0  0  0
 13 12  1  0  0  0  0
 14 13  2  0  0  0  0
 15 16  2  0  0  0  0
 15 14  1  0  0  0  0
 16 17  1  0  0  0  0
 17 18  2  0  0  0  0
 18 10  1  0  0  0  0
 19 16  1  0  0  0  0
 20 19  2  0  0  0  0
 21 22  1  0  0  0  0
 21 19  1  0  0  0  0
 22 25  1  0  0  0  0
 22 24  2  0  0  0  0
 23 22  2  0  0  0  0
 25 27  1  0  0  0  0
 26 25  1  0  0  0  0
 28 27  1  0  0  0  0
 28 29  1  0  0  0  0
 29 30  1  0  0  0  0
 30 31  1  0  0  0  0
 31 35  1  0  0  0  0
 31 32  1  0  0  0  0
 32 33  2  0  0  0  0
 32  8  1  0  0  0  0
 34 21  1  0  0  0  0
 37 38  1  0  0  0  0
 37 36  1  0  0  0  0
 39 40  1  0  0  0  0
 39 38  1  0  0  0  0
 41 40  1  0  0  0  0
 41 36  1  0  0  0  0
 43 42  1  0  0  0  0
M  END
>  <minimizedAffinity>
-5.00819445

$$$$
