
 OpenBabel09092210413D

 43 48  0  0  0  0  0  0  0  0999 V2000
    1.0830    1.3180   -5.0900 C   0  0  0  0  0  0  0  0  0  0  0  0
    0.8320   -0.0500   -5.1250 C   0  0  0  0  0  3  0  0  0  0  0  0
    0.6150   -0.6890   -6.3500 C   0  0  0  0  0  3  0  0  0  0  0  0
    0.6520    0.0180   -7.5630 C   0  0  0  0  0  0  0  0  0  0  0  0
    0.8630    1.4140   -7.5240 C   0  0  0  0  0  0  0  0  0  0  0  0
    1.0970    2.0400   -6.2870 C   0  0  0  0  0  3  0  0  0  0  0  0
    0.8670    2.2750   -8.7200 C   0  0  0  0  0  3  0  0  0  0  0  0
    0.0090    2.0980   -9.7420 C   0  0  0  0  0  0  0  0  0  0  0  0
   -1.0500    1.0370   -9.7970 C   0  0  0  0  0  2  0  0  0  0  0  0
   -0.4200   -0.2830   -9.8140 N   0  0  0  0  0  0  0  0  0  0  0  0
    0.4440   -0.7260   -8.8240 C   0  0  0  0  0  0  0  0  0  0  0  0
    1.0480   -1.8910   -9.3030 C   0  0  0  0  0  0  0  0  0  0  0  0
    0.4230   -2.2040  -10.5620 C   0  0  0  0  0  0  0  0  0  0  0  0
    0.5730   -3.2570  -11.4940 C   0  0  0  0  0  3  0  0  0  0  0  0
   -0.1810   -3.2690  -12.6710 C   0  0  0  0  0  3  0  0  0  0  0  0
   -1.0820   -2.2390  -12.9310 C   0  0  0  0  0  0  0  0  0  0  0  0
   -1.2960   -1.2120  -12.0050 C   0  0  0  0  0  3  0  0  0  0  0  0
   -0.5060   -1.1990  -10.8400 C   0  0  0  0  0  0  0  0  0  0  0  0
   -1.8680   -2.3060  -14.1750 C   0  0  0  0  0  0  0  0  0  0  0  0
   -2.7760   -3.1150  -14.2920 O   0  0  0  0  0  0  0  0  0  0  0  0
   -1.4510   -1.5440  -15.2780 N   0  0  0  0  0  0  0  0  0  0  0  0
   -0.7810   -0.0360  -15.2650 S   0  0  0  0  0  0  0  0  0  0  0  0
   -0.5430    0.3270  -16.6410 O   0  0  0  0  0  0  0  0  0  0  0  0
   -1.5900    0.7900  -14.4030 O   0  0  0  0  0  0  0  0  0  0  0  0
    0.7010   -0.3210  -14.5340 N   0  0  0  0  0  0  0  0  0  0  0  0
    1.6880   -1.0890  -15.3100 C   0  0  0  0  0  1  0  0  0  0  0  0
    1.2730    0.7740  -13.7120 C   0  0  0  0  0  2  0  0  0  0  0  0
    1.6410    2.0100  -14.5310 C   0  0  0  0  0  2  0  0  0  0  0  0
    2.4070    3.0730  -13.7310 C   0  0  0  0  0  2  0  0  0  0  0  0
    1.5670    3.8280  -12.7000 C   0  0  0  0  0  2  0  0  0  0  0  0
    1.3130    3.0470  -11.5090 N   0  0  0  0  0  0  0  0  0  0  0  0
    0.0730    2.9940  -10.9190 C   0  0  0  0  0  0  0  0  0  0  0  0
   -0.9290    3.5590  -11.3320 O   0  0  0  0  0  0  0  0  0  0  0  0
   -2.0740   -1.6500  -16.0750 H   0  0  0  0  0  0  0  0  0  0  0  0
    2.0860    2.5580  -11.0710 H   0  0  0  0  0  0  0  0  0  0  0  0
    2.1690   -2.6600   -8.6320 C   0  0  0  0  0  3  0  0  0  0  0  0
    1.6730   -3.9370   -7.9340 C   0  0  0  0  0  2  0  0  0  0  0  0
    2.8160   -4.6750   -7.2390 C   0  0  0  0  0  2  0  0  0  0  0  0
    3.9630   -4.9720   -8.2010 C   0  0  0  0  0  2  0  0  0  0  0  0
    4.4660   -3.7030   -8.8860 C   0  0  0  0  0  2  0  0  0  0  0  0
    3.3340   -2.9590   -9.5920 C   0  0  0  0  0  2  0  0  0  0  0  0
    1.6150    3.4420   -4.1650 C   0  0  0  0  0  1  0  0  0  0  0  0
    1.3180    2.0650   -3.9700 O   0  0  0  0  0  0  0  0  0  0  0  0
  1 43  1  0  0  0  0
  2  1  1  0  0  0  0
  3  2  2  0  0  0  0
  4  5  2  0  0  0  0
  4  3  1  0  0  0  0
  5  6  1  0  0  0  0
  6  1  2  0  0  0  0
  7  5  1  0  0  0  0
  8  7  2  0  0  0  0
  9  8  1  0  0  0  0
 10  9  1  0  0  0  0
 10 11  1  0  0  0  0
 11  4  1  0  0  0  0
 12 11  2  0  0  0  0
 12 36  1  0  0  0  0
 13 12  1  0  0  0  0
 14 13  2  0  0  0  0
 15 14  1  0  0  0  0
 16 15  2  0  0  0  0
 16 17  1  0  0  0  0
 17 18  2  0  0  0  0
 18 13  1  0  0  0  0
 18 10  1  0  0  0  0
 19 16  1  0  0  0  0
 20 19  2  0  0  0  0
 21 22  1  0  0  0  0
 21 19  1  0  0  0  0
 22 25  1  0  0  0  0
 22 24  2  0  0  0  0
 23 22  2  0  0  0  0
 25 27  1  0  0  0  0
 26 25  1  0  0  0  0
 28 29  1  0  0  0  0
 28 27  1  0  0  0  0
 29 30  1  0  0  0  0
 30 31  1  0  0  0  0
 31 35  1  0  0  0  0
 31 32  1  0  0  0  0
 32  8  1  0  0  0  0
 33 32  2  0  0  0  0
 34 21  1  0  0  0  0
 36 37  1  0  0  0  0
 37 38  1  0  0  0  0
 39 38  1  0  0  0  0
 40 39  1  0  0  0  0
 41 40  1  0  0  0  0
 41 36  1  0  0  0  0
 42 43  1  0  0  0  0
M  END
>  <minimizedAffinity>
-4.84820509

$$$$
