
 OpenBabel09092210413D

 43 48  0  0  0  0  0  0  0  0999 V2000
    2.6950   -4.1600  -10.1930 C   0  0  0  0  0  0  0  0  0  0  0  0
    4.0440   -4.2520   -9.8680 C   0  0  0  0  0  3  0  0  0  0  0  0
    4.4370   -4.3250   -8.5270 C   0  0  0  0  0  3  0  0  0  0  0  0
    3.4940   -4.3170   -7.4860 C   0  0  0  0  0  0  0  0  0  0  0  0
    2.1280   -4.1800   -7.8150 C   0  0  0  0  0  0  0  0  0  0  0  0
    1.7470   -4.1250   -9.1670 C   0  0  0  0  0  3  0  0  0  0  0  0
    1.0490   -4.1010   -6.8130 C   0  0  0  0  0  3  0  0  0  0  0  0
    1.1820   -3.4240   -5.6580 C   0  0  0  0  0  0  0  0  0  0  0  0
    2.4080   -2.6630   -5.2480 C   0  0  0  0  0  2  0  0  0  0  0  0
    3.5260   -3.5910   -5.0820 N   0  0  0  0  0  0  0  0  0  0  0  0
    3.9760   -4.4280   -6.0920 C   0  0  0  0  0  0  0  0  0  0  0  0
    4.8530   -5.3420   -5.5040 C   0  0  0  0  0  0  0  0  0  0  0  0
    5.0150   -4.9470   -4.1290 C   0  0  0  0  0  0  0  0  0  0  0  0
    5.7850   -5.4430   -3.0510 C   0  0  0  0  0  3  0  0  0  0  0  0
    5.7060   -4.8410   -1.7920 C   0  0  0  0  0  3  0  0  0  0  0  0
    4.8620   -3.7510   -1.5930 C   0  0  0  0  0  0  0  0  0  0  0  0
    4.1280   -3.1990   -2.6500 C   0  0  0  0  0  3  0  0  0  0  0  0
    4.1970   -3.8370   -3.9030 C   0  0  0  0  0  0  0  0  0  0  0  0
    4.8270   -3.1400   -0.2530 C   0  0  0  0  0  0  0  0  0  0  0  0
    5.7670   -2.4710    0.1480 O   0  0  0  0  0  0  0  0  0  0  0  0
    3.7740   -3.4730    0.6130 N   0  0  0  0  0  0  0  0  0  0  0  0
    2.1960   -3.7540    0.2200 S   0  0  0  0  0  0  0  0  0  0  0  0
    1.5030   -4.0400    1.4520 O   0  0  0  0  0  0  0  0  0  0  0  0
    1.7690   -2.6840   -0.6470 O   0  0  0  0  0  0  0  0  0  0  0  0
    2.3070   -5.1760   -0.6620 N   0  0  0  0  0  0  0  0  0  0  0  0
    2.6590   -6.3950    0.0830 C   0  0  0  0  0  1  0  0  0  0  0  0
    1.3180   -5.3780   -1.7500 C   0  0  0  0  0  2  0  0  0  0  0  0
   -0.1150   -5.5210   -1.2400 C   0  0  0  0  0  2  0  0  0  0  0  0
   -1.1210   -5.9190   -2.3290 C   0  0  0  0  0  2  0  0  0  0  0  0
   -1.4370   -4.8190   -3.3420 C   0  0  0  0  0  2  0  0  0  0  0  0
   -0.3820   -4.6370   -4.3160 N   0  0  0  0  0  0  0  0  0  0  0  0
    0.0610   -3.3920   -4.6910 C   0  0  0  0  0  0  0  0  0  0  0  0
   -0.3510   -2.3320   -4.2420 O   0  0  0  0  0  0  0  0  0  0  0  0
    3.8370   -2.9810    1.5010 H   0  0  0  0  0  0  0  0  0  0  0  0
    0.0110   -5.4550   -4.7670 H   0  0  0  0  0  0  0  0  0  0  0  0
    5.4890   -6.5390   -6.1830 C   0  0  0  0  0  3  0  0  0  0  0  0
    7.0250   -6.4760   -6.1720 C   0  0  0  0  0  2  0  0  0  0  0  0
    7.6400   -7.6750   -6.8910 C   0  0  0  0  0  2  0  0  0  0  0  0
    7.1300   -8.9960   -6.3210 C   0  0  0  0  0  2  0  0  0  0  0  0
    5.6050   -9.0660   -6.3420 C   0  0  0  0  0  2  0  0  0  0  0  0
    4.9770   -7.8760   -5.6190 C   0  0  0  0  0  2  0  0  0  0  0  0
    1.3150   -2.9910  -11.7360 C   0  0  0  0  0  1  0  0  0  0  0  0
    2.1740   -4.0890  -11.4550 O   0  0  0  0  0  0  0  0  0  0  0  0
  1  2  2  0  0  0  0
  1  6  1  0  0  0  0
  2  3  1  0  0  0  0
  3  4  2  0  0  0  0
  4 11  1  0  0  0  0
  5  4  1  0  0  0  0
  5  7  1  0  0  0  0
  6  5  2  0  0  0  0
  7  8  2  0  0  0  0
  8  9  1  0  0  0  0
  8 32  1  0  0  0  0
  9 10  1  0  0  0  0
 10 18  1  0  0  0  0
 11 12  2  0  0  0  0
 11 10  1  0  0  0  0
 12 13  1  0  0  0  0
 13 18  2  0  0  0  0
 13 14  1  0  0  0  0
 14 15  2  0  0  0  0
 15 16  1  0  0  0  0
 16 19  1  0  0  0  0
 17 16  2  0  0  0  0
 18 17  1  0  0  0  0
 19 20  2  0  0  0  0
 19 21  1  0  0  0  0
 21 34  1  0  0  0  0
 22 21  1  0  0  0  0
 22 23  2  0  0  0  0
 24 22  2  0  0  0  0
 25 26  1  0  0  0  0
 25 22  1  0  0  0  0
 27 28  1  0  0  0  0
 27 25  1  0  0  0  0
 29 28  1  0  0  0  0
 30 29  1  0  0  0  0
 31 30  1  0  0  0  0
 32 31  1  0  0  0  0
 32 33  2  0  0  0  0
 35 31  1  0  0  0  0
 36 37  1  0  0  0  0
 36 41  1  0  0  0  0
 36 12  1  0  0  0  0
 38 39  1  0  0  0  0
 38 37  1  0  0  0  0
 40 39  1  0  0  0  0
 40 41  1  0  0  0  0
 42 43  1  0  0  0  0
 43  1  1  0  0  0  0
M  END
>  <minimizedAffinity>
-5.17966509

$$$$
