
 OpenBabel09092210413D

 43 48  0  0  0  0  0  0  0  0999 V2000
    6.3340   -5.2430    0.6640 C   0  0  0  0  0  0  0  0  0  0  0  0
    5.2540   -4.4600    1.0560 C   0  0  0  0  0  3  0  0  0  0  0  0
    4.3190   -4.0310    0.1080 C   0  0  0  0  0  3  0  0  0  0  0  0
    4.4370   -4.3800   -1.2470 C   0  0  0  0  0  0  0  0  0  0  0  0
    5.5570   -5.1390   -1.6530 C   0  0  0  0  0  0  0  0  0  0  0  0
    6.4790   -5.5770   -0.6860 C   0  0  0  0  0  3  0  0  0  0  0  0
    5.8250   -5.5200   -3.0510 C   0  0  0  0  0  3  0  0  0  0  0  0
    5.5950   -4.6890   -4.0850 C   0  0  0  0  0  0  0  0  0  0  0  0
    5.0630   -3.2920   -3.9580 C   0  0  0  0  0  2  0  0  0  0  0  0
    3.7080   -3.3330   -3.4090 N   0  0  0  0  0  0  0  0  0  0  0  0
    3.3970   -3.9180   -2.1920 C   0  0  0  0  0  0  0  0  0  0  0  0
    2.0050   -4.0100   -2.1270 C   0  0  0  0  0  0  0  0  0  0  0  0
    1.4830   -3.3410   -3.2900 C   0  0  0  0  0  0  0  0  0  0  0  0
    0.1770   -3.0730   -3.7630 C   0  0  0  0  0  3  0  0  0  0  0  0
   -0.0100   -2.4070   -4.9770 C   0  0  0  0  0  3  0  0  0  0  0  0
    1.0920   -2.0070   -5.7300 C   0  0  0  0  0  0  0  0  0  0  0  0
    2.3980   -2.2070   -5.2660 C   0  0  0  0  0  3  0  0  0  0  0  0
    2.5670   -2.9070   -4.0560 C   0  0  0  0  0  0  0  0  0  0  0  0
    0.8430   -1.2920   -6.9930 C   0  0  0  0  0  0  0  0  0  0  0  0
    0.4460   -0.1370   -6.9840 O   0  0  0  0  0  0  0  0  0  0  0  0
    0.9110   -2.0090   -8.1990 N   0  0  0  0  0  0  0  0  0  0  0  0
    1.9480   -3.2320   -8.5860 S   0  0  0  0  0  0  0  0  0  0  0  0
    1.6380   -3.6300   -9.9380 O   0  0  0  0  0  0  0  0  0  0  0  0
    3.2760   -2.8080   -8.2180 O   0  0  0  0  0  0  0  0  0  0  0  0
    1.4460   -4.4530   -7.5520 N   0  0  0  0  0  0  0  0  0  0  0  0
    0.1350   -5.0620   -7.8300 C   0  0  0  0  0  1  0  0  0  0  0  0
    2.4800   -5.4010   -7.0690 C   0  0  0  0  0  2  0  0  0  0  0  0
    3.0770   -6.2580   -8.1840 C   0  0  0  0  0  2  0  0  0  0  0  0
    4.0050   -7.3700   -7.6770 C   0  0  0  0  0  2  0  0  0  0  0  0
    5.3490   -6.8850   -7.1330 C   0  0  0  0  0  2  0  0  0  0  0  0
    5.2400   -6.3070   -5.8100 N   0  0  0  0  0  0  0  0  0  0  0  0
    5.8770   -5.1390   -5.4670 C   0  0  0  0  0  0  0  0  0  0  0  0
    6.5630   -4.4630   -6.2190 O   0  0  0  0  0  0  0  0  0  0  0  0
    0.7420   -1.4160   -9.0080 H   0  0  0  0  0  0  0  0  0  0  0  0
    4.7120   -6.8050   -5.1030 H   0  0  0  0  0  0  0  0  0  0  0  0
    1.2020   -4.7060   -1.0460 C   0  0  0  0  0  3  0  0  0  0  0  0
    0.3400   -3.7290   -0.2290 C   0  0  0  0  0  2  0  0  0  0  0  0
   -0.4330   -4.4500    0.8730 C   0  0  0  0  0  2  0  0  0  0  0  0
   -1.2660   -5.6010    0.3170 C   0  0  0  0  0  2  0  0  0  0  0  0
   -0.4110   -6.5800   -0.4850 C   0  0  0  0  0  2  0  0  0  0  0  0
    0.3620   -5.8710   -1.5960 C   0  0  0  0  0  2  0  0  0  0  0  0
    7.5690   -7.1310    1.4120 C   0  0  0  0  0  1  0  0  0  0  0  0
    7.3130   -5.7340    1.4820 O   0  0  0  0  0  0  0  0  0  0  0  0
  1  2  1  0  0  0  0
  1 43  1  0  0  0  0
  3  2  2  0  0  0  0
  4  3  1  0  0  0  0
  5  4  2  0  0  0  0
  5  6  1  0  0  0  0
  6  1  2  0  0  0  0
  7  5  1  0  0  0  0
  8  9  1  0  0  0  0
  8  7  2  0  0  0  0
  9 10  1  0  0  0  0
 10 11  1  0  0  0  0
 11 12  2  0  0  0  0
 11  4  1  0  0  0  0
 12 36  1  0  0  0  0
 13 12  1  0  0  0  0
 14 13  1  0  0  0  0
 15 14  2  0  0  0  0
 16 17  2  0  0  0  0
 16 15  1  0  0  0  0
 17 18  1  0  0  0  0
 18 10  1  0  0  0  0
 18 13  2  0  0  0  0
 19 20  2  0  0  0  0
 19 16  1  0  0  0  0
 21 19  1  0  0  0  0
 22 24  2  0  0  0  0
 22 21  1  0  0  0  0
 22 25  1  0  0  0  0
 23 22  2  0  0  0  0
 25 27  1  0  0  0  0
 26 25  1  0  0  0  0
 28 29  1  0  0  0  0
 28 27  1  0  0  0  0
 29 30  1  0  0  0  0
 30 31  1  0  0  0  0
 31 32  1  0  0  0  0
 31 35  1  0  0  0  0
 32  8  1  0  0  0  0
 33 32  2  0  0  0  0
 34 21  1  0  0  0  0
 36 37  1  0  0  0  0
 37 38  1  0  0  0  0
 39 38  1  0  0  0  0
 40 39  1  0  0  0  0
 41 36  1  0  0  0  0
 41 40  1  0  0  0  0
 42 43  1  0  0  0  0
M  END
>  <minimizedAffinity>
-4.9138546

$$$$
