
 OpenBabel09092210413D

 43 48  0  0  0  0  0  0  0  0999 V2000
    5.9660   -5.2320    0.8990 C   0  0  0  0  0  0  0  0  0  0  0  0
    4.6660   -4.7510    1.0140 C   0  0  0  0  0  3  0  0  0  0  0  0
    3.8790   -4.5810   -0.1300 C   0  0  0  0  0  3  0  0  0  0  0  0
    4.3670   -4.8960   -1.4080 C   0  0  0  0  0  0  0  0  0  0  0  0
    5.7020   -5.3420   -1.5290 C   0  0  0  0  0  0  0  0  0  0  0  0
    6.4750   -5.5240   -0.3690 C   0  0  0  0  0  3  0  0  0  0  0  0
    6.3490   -5.6490   -2.8180 C   0  0  0  0  0  3  0  0  0  0  0  0
    6.1450   -4.9110   -3.9240 C   0  0  0  0  0  0  0  0  0  0  0  0
    5.2650   -3.6970   -3.9930 C   0  0  0  0  0  2  0  0  0  0  0  0
    3.8790   -4.0820   -3.7330 N   0  0  0  0  0  0  0  0  0  0  0  0
    3.4720   -4.7220   -2.5720 C   0  0  0  0  0  0  0  0  0  0  0  0
    2.1660   -5.1680   -2.7890 C   0  0  0  0  0  0  0  0  0  0  0  0
    1.7550   -4.6620   -4.0730 C   0  0  0  0  0  0  0  0  0  0  0  0
    0.5550   -4.7410   -4.8190 C   0  0  0  0  0  3  0  0  0  0  0  0
    0.4710   -4.1520   -6.0830 C   0  0  0  0  0  3  0  0  0  0  0  0
    1.5730   -3.4870   -6.6160 C   0  0  0  0  0  0  0  0  0  0  0  0
    2.7560   -3.3410   -5.8830 C   0  0  0  0  0  3  0  0  0  0  0  0
    2.8330   -3.9680   -4.6250 C   0  0  0  0  0  0  0  0  0  0  0  0
    1.4290   -2.8660   -7.9440 C   0  0  0  0  0  0  0  0  0  0  0  0
    0.7620   -1.8520   -8.0850 O   0  0  0  0  0  0  0  0  0  0  0  0
    1.9300   -3.5470   -9.0650 N   0  0  0  0  0  0  0  0  0  0  0  0
    3.2990   -4.4640   -9.1570 S   0  0  0  0  0  0  0  0  0  0  0  0
    3.3940   -4.9350  -10.5180 O   0  0  0  0  0  0  0  0  0  0  0  0
    4.3670   -3.7110   -8.5500 O   0  0  0  0  0  0  0  0  0  0  0  0
    2.9090   -5.7680   -8.1770 N   0  0  0  0  0  0  0  0  0  0  0  0
    1.8830   -6.6950   -8.6810 C   0  0  0  0  0  1  0  0  0  0  0  0
    4.0190   -6.4150   -7.4370 C   0  0  0  0  0  2  0  0  0  0  0  0
    5.0360   -7.0960   -8.3510 C   0  0  0  0  0  2  0  0  0  0  0  0
    6.0830   -7.9290   -7.5990 C   0  0  0  0  0  2  0  0  0  0  0  0
    7.1140   -7.1110   -6.8210 C   0  0  0  0  0  2  0  0  0  0  0  0
    6.5830   -6.5740   -5.5860 N   0  0  0  0  0  0  0  0  0  0  0  0
    6.8190   -5.2800   -5.1900 C   0  0  0  0  0  0  0  0  0  0  0  0
    7.4580   -4.4530   -5.8240 O   0  0  0  0  0  0  0  0  0  0  0  0
    1.7950   -3.0210   -9.9250 H   0  0  0  0  0  0  0  0  0  0  0  0
    6.0580   -7.1870   -4.9730 H   0  0  0  0  0  0  0  0  0  0  0  0
    1.3510   -6.0420   -1.8560 C   0  0  0  0  0  3  0  0  0  0  0  0
    0.1190   -5.3140   -1.2920 C   0  0  0  0  0  2  0  0  0  0  0  0
   -0.6650   -6.2050   -0.3310 C   0  0  0  0  0  2  0  0  0  0  0  0
   -1.0480   -7.5330   -0.9770 C   0  0  0  0  0  2  0  0  0  0  0  0
    0.1740   -8.2630   -1.5280 C   0  0  0  0  0  2  0  0  0  0  0  0
    0.9640   -7.3860   -2.4980 C   0  0  0  0  0  2  0  0  0  0  0  0
    7.4080   -6.7500    2.0250 C   0  0  0  0  0  1  0  0  0  0  0  0
    6.8380   -5.4500    1.9290 O   0  0  0  0  0  0  0  0  0  0  0  0
  1  2  1  0  0  0  0
  1 43  1  0  0  0  0
  3  2  2  0  0  0  0
  4  3  1  0  0  0  0
  5  4  2  0  0  0  0
  5  6  1  0  0  0  0
  6  1  2  0  0  0  0
  7  5  1  0  0  0  0
  8  7  2  0  0  0  0
  9  8  1  0  0  0  0
  9 10  1  0  0  0  0
 10 11  1  0  0  0  0
 11  4  1  0  0  0  0
 12 11  2  0  0  0  0
 12 36  1  0  0  0  0
 13 12  1  0  0  0  0
 14 13  2  0  0  0  0
 15 14  1  0  0  0  0
 16 15  2  0  0  0  0
 16 17  1  0  0  0  0
 17 18  2  0  0  0  0
 18 13  1  0  0  0  0
 18 10  1  0  0  0  0
 19 16  1  0  0  0  0
 20 19  2  0  0  0  0
 21 19  1  0  0  0  0
 22 21  1  0  0  0  0
 22 24  2  0  0  0  0
 22 25  1  0  0  0  0
 23 22  2  0  0  0  0
 25 27  1  0  0  0  0
 26 25  1  0  0  0  0
 28 29  1  0  0  0  0
 28 27  1  0  0  0  0
 29 30  1  0  0  0  0
 30 31  1  0  0  0  0
 31 32  1  0  0  0  0
 31 35  1  0  0  0  0
 32  8  1  0  0  0  0
 33 32  2  0  0  0  0
 34 21  1  0  0  0  0
 36 37  1  0  0  0  0
 37 38  1  0  0  0  0
 39 38  1  0  0  0  0
 40 39  1  0  0  0  0
 41 36  1  0  0  0  0
 41 40  1  0  0  0  0
 43 42  1  0  0  0  0
M  END
>  <minimizedAffinity>
-4.90888882

$$$$
