
 OpenBabel09092210413D

 43 48  0  0  0  0  0  0  0  0999 V2000
    6.4370   -4.3060    0.2470 C   0  0  0  0  0  0  0  0  0  0  0  0
    6.6870   -5.6330   -0.0870 C   0  0  0  0  0  3  0  0  0  0  0  0
    6.0400   -6.2120   -1.1830 C   0  0  0  0  0  3  0  0  0  0  0  0
    5.1400   -5.4800   -1.9740 C   0  0  0  0  0  0  0  0  0  0  0  0
    4.8530   -4.1460   -1.6090 C   0  0  0  0  0  0  0  0  0  0  0  0
    5.5230   -3.5720   -0.5150 C   0  0  0  0  0  3  0  0  0  0  0  0
    3.8860   -3.2920   -2.3230 C   0  0  0  0  0  3  0  0  0  0  0  0
    2.7200   -3.7630   -2.8010 C   0  0  0  0  0  0  0  0  0  0  0  0
    2.2490   -5.1810   -2.6640 C   0  0  0  0  0  2  0  0  0  0  0  0
    3.1540   -6.0690   -3.3930 N   0  0  0  0  0  0  0  0  0  0  0  0
    4.5140   -6.1450   -3.1380 C   0  0  0  0  0  0  0  0  0  0  0  0
    5.0860   -6.8730   -4.1840 C   0  0  0  0  0  0  0  0  0  0  0  0
    4.0050   -7.3430   -5.0100 C   0  0  0  0  0  0  0  0  0  0  0  0
    3.9380   -8.1450   -6.1740 C   0  0  0  0  0  3  0  0  0  0  0  0
    2.7060   -8.4120   -6.7770 C   0  0  0  0  0  3  0  0  0  0  0  0
    1.5370   -7.8850   -6.2340 C   0  0  0  0  0  0  0  0  0  0  0  0
    1.5590   -7.1340   -5.0530 C   0  0  0  0  0  3  0  0  0  0  0  0
    2.8120   -6.8490   -4.4770 C   0  0  0  0  0  0  0  0  0  0  0  0
    0.2610   -8.2090   -6.8950 C   0  0  0  0  0  0  0  0  0  0  0  0
   -0.2160   -9.3300   -6.8040 O   0  0  0  0  0  0  0  0  0  0  0  0
   -0.3100   -7.2640   -7.7620 N   0  0  0  0  0  0  0  0  0  0  0  0
   -0.3050   -5.6220   -7.6050 S   0  0  0  0  0  0  0  0  0  0  0  0
   -1.0320   -5.0920   -8.7330 O   0  0  0  0  0  0  0  0  0  0  0  0
   -0.6980   -5.3140   -6.2520 O   0  0  0  0  0  0  0  0  0  0  0  0
    1.3190   -5.2580   -7.8100 N   0  0  0  0  0  0  0  0  0  0  0  0
    1.8750   -5.4390   -9.1610 C   0  0  0  0  0  1  0  0  0  0  0  0
    1.8500   -4.0850   -7.0730 C   0  0  0  0  0  2  0  0  0  0  0  0
    1.2460   -2.7610   -7.5360 C   0  0  0  0  0  2  0  0  0  0  0  0
    1.9190   -1.5270   -6.9200 C   0  0  0  0  0  2  0  0  0  0  0  0
    1.6240   -1.3090   -5.4360 C   0  0  0  0  0  2  0  0  0  0  0  0
    2.3730   -2.2040   -4.5810 N   0  0  0  0  0  0  0  0  0  0  0  0
    1.7970   -2.8530   -3.5160 C   0  0  0  0  0  0  0  0  0  0  0  0
    0.6200   -2.7730   -3.1950 O   0  0  0  0  0  0  0  0  0  0  0  0
   -1.1960   -7.5820   -8.1470 H   0  0  0  0  0  0  0  0  0  0  0  0
    3.3660   -2.3210   -4.7480 H   0  0  0  0  0  0  0  0  0  0  0  0
    6.5670   -7.0990   -4.4150 C   0  0  0  0  0  3  0  0  0  0  0  0
    6.9780   -8.5670   -4.2160 C   0  0  0  0  0  2  0  0  0  0  0  0
    8.4790   -8.7610   -4.4220 C   0  0  0  0  0  2  0  0  0  0  0  0
    8.9350   -8.2310   -5.7780 C   0  0  0  0  0  2  0  0  0  0  0  0
    8.5390   -6.7700   -5.9730 C   0  0  0  0  0  2  0  0  0  0  0  0
    7.0380   -6.5630   -5.7780 C   0  0  0  0  0  2  0  0  0  0  0  0
    6.8210   -2.2060    1.2910 C   0  0  0  0  0  1  0  0  0  0  0  0
    7.0010   -3.6160    1.2830 O   0  0  0  0  0  0  0  0  0  0  0  0
  1 43  1  0  0  0  0
  2  1  1  0  0  0  0
  3  2  2  0  0  0  0
  4  5  2  0  0  0  0
  4  3  1  0  0  0  0
  5  6  1  0  0  0  0
  6  1  2  0  0  0  0
  7  5  1  0  0  0  0
  8  9  1  0  0  0  0
  8  7  2  0  0  0  0
 10 11  1  0  0  0  0
 10  9  1  0  0  0  0
 11  4  1  0  0  0  0
 12 11  2  0  0  0  0
 13 18  1  0  0  0  0
 13 12  1  0  0  0  0
 14 13  2  0  0  0  0
 15 16  2  0  0  0  0
 15 14  1  0  0  0  0
 16 17  1  0  0  0  0
 17 18  2  0  0  0  0
 18 10  1  0  0  0  0
 19 20  2  0  0  0  0
 19 16  1  0  0  0  0
 21 22  1  0  0  0  0
 21 19  1  0  0  0  0
 22 24  2  0  0  0  0
 23 22  2  0  0  0  0
 25 22  1  0  0  0  0
 25 27  1  0  0  0  0
 26 25  1  0  0  0  0
 28 27  1  0  0  0  0
 28 29  1  0  0  0  0
 29 30  1  0  0  0  0
 30 31  1  0  0  0  0
 31 32  1  0  0  0  0
 32 33  2  0  0  0  0
 32  8  1  0  0  0  0
 34 21  1  0  0  0  0
 35 31  1  0  0  0  0
 36 37  1  0  0  0  0
 36 12  1  0  0  0  0
 38 37  1  0  0  0  0
 39 38  1  0  0  0  0
 40 41  1  0  0  0  0
 40 39  1  0  0  0  0
 41 36  1  0  0  0  0
 43 42  1  0  0  0  0
M  END
>  <minimizedAffinity>
-4.78931952

$$$$
