
 OpenBabel09092210413D

 43 48  0  0  0  0  0  0  0  0999 V2000
    2.7970   -5.6750  -12.4610 C   0  0  0  0  0  0  0  0  0  0  0  0
    1.5950   -5.1580  -11.9910 C   0  0  0  0  0  3  0  0  0  0  0  0
    1.3970   -4.9870  -10.6160 C   0  0  0  0  0  3  0  0  0  0  0  0
    2.3960   -5.3190   -9.6860 C   0  0  0  0  0  0  0  0  0  0  0  0
    3.5990   -5.8850  -10.1610 C   0  0  0  0  0  0  0  0  0  0  0  0
    3.7900   -6.0340  -11.5450 C   0  0  0  0  0  3  0  0  0  0  0  0
    4.6980   -6.3270   -9.2840 C   0  0  0  0  0  3  0  0  0  0  0  0
    4.4820   -6.9460   -8.1090 C   0  0  0  0  0  0  0  0  0  0  0  0
    3.1280   -7.2770   -7.5520 C   0  0  0  0  0  2  0  0  0  0  0  0
    2.3960   -6.0400   -7.2810 N   0  0  0  0  0  0  0  0  0  0  0  0
    2.1320   -5.0840   -8.2490 C   0  0  0  0  0  0  0  0  0  0  0  0
    1.6690   -3.9470   -7.5850 C   0  0  0  0  0  0  0  0  0  0  0  0
    1.5410   -4.2940   -6.1930 C   0  0  0  0  0  0  0  0  0  0  0  0
    1.0960   -3.5960   -5.0460 C   0  0  0  0  0  3  0  0  0  0  0  0
    1.1150   -4.2150   -3.7930 C   0  0  0  0  0  3  0  0  0  0  0  0
    1.5770   -5.5230   -3.6690 C   0  0  0  0  0  0  0  0  0  0  0  0
    1.9720   -6.2620   -4.7900 C   0  0  0  0  0  3  0  0  0  0  0  0
    1.9750   -5.6130   -6.0390 C   0  0  0  0  0  0  0  0  0  0  0  0
    1.5610   -6.1370   -2.3300 C   0  0  0  0  0  0  0  0  0  0  0  0
    0.5050   -6.4740   -1.8160 O   0  0  0  0  0  0  0  0  0  0  0  0
    2.7540   -6.1780   -1.5910 N   0  0  0  0  0  0  0  0  0  0  0  0
    4.2840   -6.4150   -2.1620 S   0  0  0  0  0  0  0  0  0  0  0  0
    5.1640   -6.3920   -1.0190 O   0  0  0  0  0  0  0  0  0  0  0  0
    4.2440   -7.5490   -3.0510 O   0  0  0  0  0  0  0  0  0  0  0  0
    4.5420   -5.0170   -3.0520 N   0  0  0  0  0  0  0  0  0  0  0  0
    4.6880   -3.7640   -2.2940 C   0  0  0  0  0  1  0  0  0  0  0  0
    5.4180   -5.1260   -4.2450 C   0  0  0  0  0  2  0  0  0  0  0  0
    6.8660   -5.4640   -3.8990 C   0  0  0  0  0  2  0  0  0  0  0  0
    7.8200   -5.3920   -5.1000 C   0  0  0  0  0  2  0  0  0  0  0  0
    7.6500   -6.5160   -6.1220 C   0  0  0  0  0  2  0  0  0  0  0  0
    6.4920   -6.3280   -6.9700 N   0  0  0  0  0  0  0  0  0  0  0  0
    5.6320   -7.3560   -7.2710 C   0  0  0  0  0  0  0  0  0  0  0  0
    5.7250   -8.5010   -6.8510 O   0  0  0  0  0  0  0  0  0  0  0  0
    2.6330   -6.6400   -0.6930 H   0  0  0  0  0  0  0  0  0  0  0  0
    6.3370   -5.4200   -7.3890 H   0  0  0  0  0  0  0  0  0  0  0  0
    1.3830   -2.5960   -8.2110 C   0  0  0  0  0  3  0  0  0  0  0  0
   -0.1210   -2.3380   -8.3960 C   0  0  0  0  0  2  0  0  0  0  0  0
   -0.3800   -0.9860   -9.0580 C   0  0  0  0  0  2  0  0  0  0  0  0
    0.2940    0.1530   -8.2980 C   0  0  0  0  0  2  0  0  0  0  0  0
    1.7900   -0.0960   -8.1230 C   0  0  0  0  0  2  0  0  0  0  0  0
    2.0630   -1.4420   -7.4540 C   0  0  0  0  0  2  0  0  0  0  0  0
    4.5100   -5.9560  -14.0860 C   0  0  0  0  0  1  0  0  0  0  0  0
    3.1250   -5.8870  -13.7720 O   0  0  0  0  0  0  0  0  0  0  0  0
  1  2  2  0  0  0  0
  1  6  1  0  0  0  0
  2  3  1  0  0  0  0
  3  4  2  0  0  0  0
  4 11  1  0  0  0  0
  5  4  1  0  0  0  0
  5  7  1  0  0  0  0
  6  5  2  0  0  0  0
  7  8  2  0  0  0  0
  8  9  1  0  0  0  0
  8 32  1  0  0  0  0
  9 10  1  0  0  0  0
 10 18  1  0  0  0  0
 11 12  2  0  0  0  0
 11 10  1  0  0  0  0
 12 13  1  0  0  0  0
 13 18  2  0  0  0  0
 13 14  1  0  0  0  0
 14 15  2  0  0  0  0
 15 16  1  0  0  0  0
 16 19  1  0  0  0  0
 17 16  2  0  0  0  0
 18 17  1  0  0  0  0
 19 20  2  0  0  0  0
 19 21  1  0  0  0  0
 21 34  1  0  0  0  0
 22 21  1  0  0  0  0
 22 23  2  0  0  0  0
 24 22  2  0  0  0  0
 25 26  1  0  0  0  0
 25 22  1  0  0  0  0
 27 28  1  0  0  0  0
 27 25  1  0  0  0  0
 29 28  1  0  0  0  0
 30 29  1  0  0  0  0
 31 30  1  0  0  0  0
 32 31  1  0  0  0  0
 32 33  2  0  0  0  0
 35 31  1  0  0  0  0
 36 12  1  0  0  0  0
 36 41  1  0  0  0  0
 37 36  1  0  0  0  0
 38 37  1  0  0  0  0
 38 39  1  0  0  0  0
 39 40  1  0  0  0  0
 40 41  1  0  0  0  0
 42 43  1  0  0  0  0
 43  1  1  0  0  0  0
M  END
>  <minimizedAffinity>
-4.74063015

$$$$
