
 OpenBabel09092210413D

 43 48  0  0  0  0  0  0  0  0999 V2000
    1.1670   -2.2450  -11.2320 C   0  0  0  0  0  0  0  0  0  0  0  0
    0.0990   -1.8050  -10.4570 C   0  0  0  0  0  3  0  0  0  0  0  0
    0.0840   -2.0560   -9.0810 C   0  0  0  0  0  3  0  0  0  0  0  0
    1.1340   -2.7420   -8.4490 C   0  0  0  0  0  0  0  0  0  0  0  0
    2.1960   -3.2280   -9.2430 C   0  0  0  0  0  0  0  0  0  0  0  0
    2.2060   -2.9530  -10.6220 C   0  0  0  0  0  3  0  0  0  0  0  0
    3.3260   -4.0100   -8.7100 C   0  0  0  0  0  3  0  0  0  0  0  0
    3.1710   -4.9450   -7.7550 C   0  0  0  0  0  0  0  0  0  0  0  0
    1.8600   -5.3220   -7.1290 C   0  0  0  0  0  2  0  0  0  0  0  0
    1.3220   -4.1760   -6.3960 N   0  0  0  0  0  0  0  0  0  0  0  0
    1.0680   -2.9470   -6.9860 C   0  0  0  0  0  0  0  0  0  0  0  0
    0.8280   -2.0400   -5.9510 C   0  0  0  0  0  0  0  0  0  0  0  0
    0.8190   -2.7930   -4.7240 C   0  0  0  0  0  0  0  0  0  0  0  0
    0.5980   -2.4540   -3.3680 C   0  0  0  0  0  3  0  0  0  0  0  0
    0.6850   -3.4320   -2.3740 C   0  0  0  0  0  3  0  0  0  0  0  0
    0.9940   -4.7470   -2.7150 C   0  0  0  0  0  0  0  0  0  0  0  0
    1.1630   -5.1290   -4.0520 C   0  0  0  0  0  3  0  0  0  0  0  0
    1.1020   -4.1240   -5.0360 C   0  0  0  0  0  0  0  0  0  0  0  0
    1.0550   -5.7450   -1.6340 C   0  0  0  0  0  0  0  0  0  0  0  0
    0.0320   -6.1380   -1.0940 O   0  0  0  0  0  0  0  0  0  0  0  0
    2.3110   -6.1130   -1.1250 N   0  0  0  0  0  0  0  0  0  0  0  0
    3.7250   -6.2840   -1.9590 S   0  0  0  0  0  0  0  0  0  0  0  0
    4.7270   -6.6910   -1.0040 O   0  0  0  0  0  0  0  0  0  0  0  0
    3.4440   -7.0760   -3.1310 O   0  0  0  0  0  0  0  0  0  0  0  0
    4.0500   -4.7040   -2.4200 N   0  0  0  0  0  0  0  0  0  0  0  0
    4.4340   -3.7670   -1.3530 C   0  0  0  0  0  1  0  0  0  0  0  0
    4.7620   -4.5060   -3.7060 C   0  0  0  0  0  2  0  0  0  0  0  0
    6.1880   -5.0520   -3.6940 C   0  0  0  0  0  2  0  0  0  0  0  0
    6.9990   -4.6870   -4.9450 C   0  0  0  0  0  2  0  0  0  0  0  0
    6.5750   -5.4180   -6.2190 C   0  0  0  0  0  2  0  0  0  0  0  0
    5.3600   -4.8810   -6.7920 N   0  0  0  0  0  0  0  0  0  0  0  0
    4.3500   -5.6890   -7.2560 C   0  0  0  0  0  0  0  0  0  0  0  0
    4.3500   -6.9110   -7.2160 O   0  0  0  0  0  0  0  0  0  0  0  0
    2.2390   -6.8200   -0.3990 H   0  0  0  0  0  0  0  0  0  0  0  0
    5.2710   -3.8770   -6.8940 H   0  0  0  0  0  0  0  0  0  0  0  0
    0.6400   -0.5430   -6.0970 C   0  0  0  0  0  3  0  0  0  0  0  0
   -0.8350   -0.1210   -6.0030 C   0  0  0  0  0  2  0  0  0  0  0  0
   -0.9990    1.3860   -6.1850 C   0  0  0  0  0  2  0  0  0  0  0  0
   -0.1290    2.1710   -5.2070 C   0  0  0  0  0  2  0  0  0  0  0  0
    1.3380    1.7620   -5.3070 C   0  0  0  0  0  2  0  0  0  0  0  0
    1.5170    0.2570   -5.1180 C   0  0  0  0  0  2  0  0  0  0  0  0
    0.9380   -0.7960  -13.1030 C   0  0  0  0  0  1  0  0  0  0  0  0
    1.3130   -2.0640  -12.5790 O   0  0  0  0  0  0  0  0  0  0  0  0
  1  6  2  0  0  0  0
  1  2  1  0  0  0  0
  2  3  2  0  0  0  0
  3  4  1  0  0  0  0
  4 11  1  0  0  0  0
  5  7  1  0  0  0  0
  5  4  2  0  0  0  0
  6  5  1  0  0  0  0
  7  8  2  0  0  0  0
  8 32  1  0  0  0  0
  8  9  1  0  0  0  0
  9 10  1  0  0  0  0
 10 18  1  0  0  0  0
 11 10  1  0  0  0  0
 11 12  2  0  0  0  0
 12 13  1  0  0  0  0
 13 14  1  0  0  0  0
 14 15  2  0  0  0  0
 16 15  1  0  0  0  0
 16 19  1  0  0  0  0
 17 16  2  0  0  0  0
 18 13  2  0  0  0  0
 18 17  1  0  0  0  0
 19 21  1  0  0  0  0
 19 20  2  0  0  0  0
 21 34  1  0  0  0  0
 22 21  1  0  0  0  0
 22 23  2  0  0  0  0
 24 22  2  0  0  0  0
 25 22  1  0  0  0  0
 25 26  1  0  0  0  0
 27 28  1  0  0  0  0
 27 25  1  0  0  0  0
 29 28  1  0  0  0  0
 30 29  1  0  0  0  0
 31 30  1  0  0  0  0
 32 33  2  0  0  0  0
 32 31  1  0  0  0  0
 35 31  1  0  0  0  0
 36 37  1  0  0  0  0
 36 12  1  0  0  0  0
 36 41  1  0  0  0  0
 38 37  1  0  0  0  0
 38 39  1  0  0  0  0
 40 39  1  0  0  0  0
 40 41  1  0  0  0  0
 42 43  1  0  0  0  0
 43  1  1  0  0  0  0
M  END
>  <minimizedAffinity>
-4.73507643

$$$$
