
 OpenBabel09092210413D

 43 48  0  0  0  0  0  0  0  0999 V2000
   -0.4400    0.7210  -12.0350 C   0  0  0  0  0  0  0  0  0  0  0  0
    0.7670    0.0420  -12.1690 C   0  0  0  0  0  3  0  0  0  0  0  0
    1.2930   -0.6710  -11.0870 C   0  0  0  0  0  3  0  0  0  0  0  0
    0.6230   -0.7300   -9.8540 C   0  0  0  0  0  0  0  0  0  0  0  0
   -0.5800   -0.0050   -9.7040 C   0  0  0  0  0  0  0  0  0  0  0  0
   -1.1040    0.6930  -10.8060 C   0  0  0  0  0  3  0  0  0  0  0  0
   -1.3450    0.0600   -8.4460 C   0  0  0  0  0  3  0  0  0  0  0  0
   -0.7520    0.1500   -7.2420 C   0  0  0  0  0  0  0  0  0  0  0  0
    0.7310    0.2100   -7.0200 C   0  0  0  0  0  2  0  0  0  0  0  0
    1.3430   -1.0400   -7.4680 N   0  0  0  0  0  0  0  0  0  0  0  0
    1.2200   -1.5270   -8.7600 C   0  0  0  0  0  0  0  0  0  0  0  0
    1.6900   -2.8420   -8.7470 C   0  0  0  0  0  0  0  0  0  0  0  0
    2.2210   -3.0880   -7.4310 C   0  0  0  0  0  0  0  0  0  0  0  0
    2.8550   -4.1950   -6.8210 C   0  0  0  0  0  3  0  0  0  0  0  0
    3.2440   -4.1340   -5.4800 C   0  0  0  0  0  3  0  0  0  0  0  0
    3.0020   -2.9820   -4.7370 C   0  0  0  0  0  0  0  0  0  0  0  0
    2.4270   -1.8480   -5.3230 C   0  0  0  0  0  3  0  0  0  0  0  0
    2.0150   -1.9380   -6.6660 C   0  0  0  0  0  0  0  0  0  0  0  0
    3.4470   -2.9590   -3.3320 C   0  0  0  0  0  0  0  0  0  0  0  0
    4.6340   -2.8730   -3.0600 O   0  0  0  0  0  0  0  0  0  0  0  0
    2.5030   -3.2040   -2.3220 N   0  0  0  0  0  0  0  0  0  0  0  0
    0.9210   -2.7380   -2.2870 S   0  0  0  0  0  0  0  0  0  0  0  0
    0.3740   -3.2090   -1.0380 O   0  0  0  0  0  0  0  0  0  0  0  0
    0.8730   -1.3420   -2.6450 O   0  0  0  0  0  0  0  0  0  0  0  0
    0.2610   -3.6540   -3.5270 N   0  0  0  0  0  0  0  0  0  0  0  0
    0.1590   -5.1040   -3.3000 C   0  0  0  0  0  1  0  0  0  0  0  0
   -0.8730   -3.0620   -4.2780 C   0  0  0  0  0  2  0  0  0  0  0  0
   -2.1260   -2.8740   -3.4240 C   0  0  0  0  0  2  0  0  0  0  0  0
   -3.3610   -2.4430   -4.2270 C   0  0  0  0  0  2  0  0  0  0  0  0
   -3.3200   -1.0040   -4.7430 C   0  0  0  0  0  2  0  0  0  0  0  0
   -2.4580   -0.8490   -5.8950 N   0  0  0  0  0  0  0  0  0  0  0  0
   -1.5810    0.2020   -6.0160 C   0  0  0  0  0  0  0  0  0  0  0  0
   -1.4140    1.0810   -5.1830 O   0  0  0  0  0  0  0  0  0  0  0  0
    2.9120   -3.1460   -1.3930 H   0  0  0  0  0  0  0  0  0  0  0  0
   -2.5360   -1.5130   -6.6560 H   0  0  0  0  0  0  0  0  0  0  0  0
    1.6270   -3.8290   -9.8960 C   0  0  0  0  0  3  0  0  0  0  0  0
    3.0200   -4.2200  -10.4170 C   0  0  0  0  0  2  0  0  0  0  0  0
    2.9260   -5.1880  -11.5940 C   0  0  0  0  0  2  0  0  0  0  0  0
    2.0930   -6.4190  -11.2480 C   0  0  0  0  0  2  0  0  0  0  0  0
    0.7050   -6.0340  -10.7420 C   0  0  0  0  0  2  0  0  0  0  0  0
    0.7840   -5.0720   -9.5580 C   0  0  0  0  0  2  0  0  0  0  0  0
   -1.0330    2.8630  -12.8770 C   0  0  0  0  0  1  0  0  0  0  0  0
   -1.0680    1.4480  -13.0080 O   0  0  0  0  0  0  0  0  0  0  0  0
  1  6  1  0  0  0  0
  2  1  2  0  0  0  0
  2  3  1  0  0  0  0
  3  4  2  0  0  0  0
  4  5  1  0  0  0  0
  4 11  1  0  0  0  0
  5  7  1  0  0  0  0
  6  5  2  0  0  0  0
  7  8  2  0  0  0  0
  8  9  1  0  0  0  0
  8 32  1  0  0  0  0
 10  9  1  0  0  0  0
 10 18  1  0  0  0  0
 11 12  2  0  0  0  0
 11 10  1  0  0  0  0
 12 13  1  0  0  0  0
 13 14  2  0  0  0  0
 13 18  1  0  0  0  0
 14 15  1  0  0  0  0
 15 16  2  0  0  0  0
 16 19  1  0  0  0  0
 17 16  1  0  0  0  0
 18 17  2  0  0  0  0
 19 20  2  0  0  0  0
 19 21  1  0  0  0  0
 21 22  1  0  0  0  0
 21 34  1  0  0  0  0
 22 23  2  0  0  0  0
 24 22  2  0  0  0  0
 25 26  1  0  0  0  0
 25 22  1  0  0  0  0
 27 25  1  0  0  0  0
 27 28  1  0  0  0  0
 29 28  1  0  0  0  0
 30 29  1  0  0  0  0
 31 30  1  0  0  0  0
 32 31  1  0  0  0  0
 32 33  2  0  0  0  0
 35 31  1  0  0  0  0
 36 41  1  0  0  0  0
 36 12  1  0  0  0  0
 37 36  1  0  0  0  0
 38 39  1  0  0  0  0
 38 37  1  0  0  0  0
 39 40  1  0  0  0  0
 40 41  1  0  0  0  0
 43 42  1  0  0  0  0
 43  1  1  0  0  0  0
M  END
>  <minimizedAffinity>
-4.6840992

$$$$
