
 OpenBabel09092210413D

 43 48  0  0  0  0  0  0  0  0999 V2000
    3.5810   -5.7230  -12.6760 C   0  0  0  0  0  0  0  0  0  0  0  0
    4.5040   -5.6540  -11.6380 C   0  0  0  0  0  3  0  0  0  0  0  0
    4.1970   -4.9410  -10.4740 C   0  0  0  0  0  3  0  0  0  0  0  0
    2.9630   -4.2900  -10.3180 C   0  0  0  0  0  0  0  0  0  0  0  0
    2.0430   -4.3230  -11.3890 C   0  0  0  0  0  0  0  0  0  0  0  0
    2.3590   -5.0580  -12.5450 C   0  0  0  0  0  3  0  0  0  0  0  0
    0.7400   -3.6330  -11.3710 C   0  0  0  0  0  3  0  0  0  0  0  0
    0.5760   -2.4120  -10.8300 C   0  0  0  0  0  0  0  0  0  0  0  0
    1.6690   -1.6000  -10.2000 C   0  0  0  0  0  2  0  0  0  0  0  0
    2.1730   -2.2940   -9.0150 N   0  0  0  0  0  0  0  0  0  0  0  0
    2.6910   -3.5790   -9.0500 C   0  0  0  0  0  0  0  0  0  0  0  0
    2.8130   -4.0060   -7.7260 C   0  0  0  0  0  0  0  0  0  0  0  0
    2.4710   -2.8850   -6.8880 C   0  0  0  0  0  0  0  0  0  0  0  0
    2.4380   -2.6820   -5.4890 C   0  0  0  0  0  3  0  0  0  0  0  0
    2.0260   -1.4540   -4.9640 C   0  0  0  0  0  3  0  0  0  0  0  0
    1.6410   -0.4250   -5.8210 C   0  0  0  0  0  0  0  0  0  0  0  0
    1.7150   -0.5720   -7.2110 C   0  0  0  0  0  3  0  0  0  0  0  0
    2.1030   -1.8260   -7.7210 C   0  0  0  0  0  0  0  0  0  0  0  0
    1.2320    0.8570   -5.2210 C   0  0  0  0  0  0  0  0  0  0  0  0
    2.0630    1.6000   -4.7190 O   0  0  0  0  0  0  0  0  0  0  0  0
   -0.1380    1.1330   -5.0870 N   0  0  0  0  0  0  0  0  0  0  0  0
   -1.3520    0.7320   -6.1300 S   0  0  0  0  0  0  0  0  0  0  0  0
   -2.5750    1.2480   -5.5650 O   0  0  0  0  0  0  0  0  0  0  0  0
   -0.9260    1.1040   -7.4560 O   0  0  0  0  0  0  0  0  0  0  0  0
   -1.3800   -0.9400   -6.0020 N   0  0  0  0  0  0  0  0  0  0  0  0
   -1.8680   -1.5020   -4.7330 C   0  0  0  0  0  1  0  0  0  0  0  0
   -1.7740   -1.7060   -7.2110 C   0  0  0  0  0  2  0  0  0  0  0  0
   -3.2250   -1.4710   -7.6250 C   0  0  0  0  0  2  0  0  0  0  0  0
   -3.7030   -2.3950   -8.7530 C   0  0  0  0  0  2  0  0  0  0  0  0
   -3.1090   -2.0880  -10.1280 C   0  0  0  0  0  2  0  0  0  0  0  0
   -1.7440   -2.5510  -10.2620 N   0  0  0  0  0  0  0  0  0  0  0  0
   -0.7630   -1.7790  -10.8360 C   0  0  0  0  0  0  0  0  0  0  0  0
   -0.9180   -0.6430  -11.2620 O   0  0  0  0  0  0  0  0  0  0  0  0
   -0.3070    2.0500   -4.6810 H   0  0  0  0  0  0  0  0  0  0  0  0
   -1.5150   -3.4910   -9.9610 H   0  0  0  0  0  0  0  0  0  0  0  0
    3.2050   -5.3950   -7.2630 C   0  0  0  0  0  3  0  0  0  0  0  0
    4.5970   -5.4290   -6.6100 C   0  0  0  0  0  2  0  0  0  0  0  0
    4.9810   -6.8450   -6.1840 C   0  0  0  0  0  2  0  0  0  0  0  0
    3.9220   -7.4670   -5.2780 C   0  0  0  0  0  2  0  0  0  0  0  0
    2.5410   -7.4460   -5.9290 C   0  0  0  0  0  2  0  0  0  0  0  0
    2.1410   -6.0340   -6.3530 C   0  0  0  0  0  2  0  0  0  0  0  0
    3.9130   -5.5910  -15.0260 C   0  0  0  0  0  1  0  0  0  0  0  0
    3.7470   -6.3860  -13.8590 O   0  0  0  0  0  0  0  0  0  0  0  0
  1  6  2  0  0  0  0
  1  2  1  0  0  0  0
  2  3  2  0  0  0  0
  3  4  1  0  0  0  0
  4 11  1  0  0  0  0
  5  7  1  0  0  0  0
  5  4  2  0  0  0  0
  6  5  1  0  0  0  0
  7  8  2  0  0  0  0
  8  9  1  0  0  0  0
  9 10  1  0  0  0  0
 10 18  1  0  0  0  0
 11 10  1  0  0  0  0
 11 12  2  0  0  0  0
 12 36  1  0  0  0  0
 12 13  1  0  0  0  0
 13 14  1  0  0  0  0
 14 15  2  0  0  0  0
 16 19  1  0  0  0  0
 16 15  1  0  0  0  0
 17 16  2  0  0  0  0
 18 17  1  0  0  0  0
 18 13  2  0  0  0  0
 19 21  1  0  0  0  0
 19 20  2  0  0  0  0
 21 34  1  0  0  0  0
 22 25  1  0  0  0  0
 22 23  2  0  0  0  0
 22 21  1  0  0  0  0
 24 22  2  0  0  0  0
 25 26  1  0  0  0  0
 27 25  1  0  0  0  0
 28 27  1  0  0  0  0
 29 28  1  0  0  0  0
 30 29  1  0  0  0  0
 31 30  1  0  0  0  0
 31 35  1  0  0  0  0
 32  8  1  0  0  0  0
 32 31  1  0  0  0  0
 33 32  2  0  0  0  0
 36 37  1  0  0  0  0
 36 41  1  0  0  0  0
 37 38  1  0  0  0  0
 38 39  1  0  0  0  0
 40 39  1  0  0  0  0
 41 40  1  0  0  0  0
 42 43  1  0  0  0  0
 43  1  1  0  0  0  0
M  END
>  <minimizedAffinity>
-4.90611029

$$$$
