
 OpenBabel09092210413D

 43 48  0  0  0  0  0  0  0  0999 V2000
   -0.1870   -0.5180   -3.1120 C   0  0  0  0  0  0  0  0  0  0  0  0
    0.3970   -0.3190   -4.3590 C   0  0  0  0  0  3  0  0  0  0  0  0
    1.4170   -1.1710   -4.7960 C   0  0  0  0  0  3  0  0  0  0  0  0
    1.8680   -2.2410   -4.0060 C   0  0  0  0  0  0  0  0  0  0  0  0
    1.3050   -2.4160   -2.7230 C   0  0  0  0  0  0  0  0  0  0  0  0
    0.2690   -1.5620   -2.3040 C   0  0  0  0  0  3  0  0  0  0  0  0
    1.7310   -3.4630   -1.7770 C   0  0  0  0  0  3  0  0  0  0  0  0
    3.0200   -3.8200   -1.6260 C   0  0  0  0  0  0  0  0  0  0  0  0
    4.1710   -3.2070   -2.3670 C   0  0  0  0  0  2  0  0  0  0  0  0
    4.0370   -3.4880   -3.7970 N   0  0  0  0  0  0  0  0  0  0  0  0
    2.9280   -3.1210   -4.5430 C   0  0  0  0  0  0  0  0  0  0  0  0
    3.0270   -3.7800   -5.7710 C   0  0  0  0  0  0  0  0  0  0  0  0
    4.3000   -4.4540   -5.7870 C   0  0  0  0  0  0  0  0  0  0  0  0
    4.9790   -5.2420   -6.7450 C   0  0  0  0  0  3  0  0  0  0  0  0
    6.2280   -5.7940   -6.4460 C   0  0  0  0  0  3  0  0  0  0  0  0
    6.8060   -5.5730   -5.1990 C   0  0  0  0  0  0  0  0  0  0  0  0
    6.1880   -4.7540   -4.2470 C   0  0  0  0  0  3  0  0  0  0  0  0
    4.9170   -4.2310   -4.5540 C   0  0  0  0  0  0  0  0  0  0  0  0
    8.1310   -6.1620   -4.9380 C   0  0  0  0  0  0  0  0  0  0  0  0
    9.1300   -5.7000   -5.4700 O   0  0  0  0  0  0  0  0  0  0  0  0
    8.2070   -7.3560   -4.2030 N   0  0  0  0  0  0  0  0  0  0  0  0
    7.2660   -7.8150   -2.9270 S   0  0  0  0  0  0  0  0  0  0  0  0
    7.7410   -9.1100   -2.5040 O   0  0  0  0  0  0  0  0  0  0  0  0
    7.2070   -6.7040   -2.0100 O   0  0  0  0  0  0  0  0  0  0  0  0
    5.7690   -8.0170   -3.6560 N   0  0  0  0  0  0  0  0  0  0  0  0
    5.6240   -9.1600   -4.5710 C   0  0  0  0  0  1  0  0  0  0  0  0
    4.5700   -7.7270   -2.8320 C   0  0  0  0  0  2  0  0  0  0  0  0
    4.4000   -8.6880   -1.6570 C   0  0  0  0  0  2  0  0  0  0  0  0
    3.0690   -8.5210   -0.9110 C   0  0  0  0  0  2  0  0  0  0  0  0
    2.9600   -7.2480   -0.0720 C   0  0  0  0  0  2  0  0  0  0  0  0
    2.7120   -6.0700   -0.8750 N   0  0  0  0  0  0  0  0  0  0  0  0
    3.3790   -4.8880   -0.6650 C   0  0  0  0  0  0  0  0  0  0  0  0
    4.2470   -4.7070    0.1780 O   0  0  0  0  0  0  0  0  0  0  0  0
    9.1670   -7.6620   -4.0660 H   0  0  0  0  0  0  0  0  0  0  0  0
    1.9920   -6.1080   -1.5870 H   0  0  0  0  0  0  0  0  0  0  0  0
    1.9790   -3.8000   -6.8650 C   0  0  0  0  0  3  0  0  0  0  0  0
    2.4380   -3.0680   -8.1370 C   0  0  0  0  0  2  0  0  0  0  0  0
    1.3520   -3.0740   -9.2100 C   0  0  0  0  0  2  0  0  0  0  0  0
    0.8740   -4.4900   -9.5210 C   0  0  0  0  0  2  0  0  0  0  0  0
    0.4060   -5.2150   -8.2620 C   0  0  0  0  0  2  0  0  0  0  0  0
    1.4870   -5.2230   -7.1820 C   0  0  0  0  0  2  0  0  0  0  0  0
   -1.0130    0.6660   -1.2230 C   0  0  0  0  0  1  0  0  0  0  0  0
   -1.1920    0.2310   -2.5650 O   0  0  0  0  0  0  0  0  0  0  0  0
  1 43  1  0  0  0  0
  1  6  1  0  0  0  0
  2  1  2  0  0  0  0
  3  2  1  0  0  0  0
  3  4  2  0  0  0  0
  4  5  1  0  0  0  0
  5  6  2  0  0  0  0
  5  7  1  0  0  0  0
  7  8  2  0  0  0  0
  8 32  1  0  0  0  0
  9  8  1  0  0  0  0
 10  9  1  0  0  0  0
 11  4  1  0  0  0  0
 11 10  1  0  0  0  0
 12 11  2  0  0  0  0
 13 12  1  0  0  0  0
 13 18  1  0  0  0  0
 14 15  1  0  0  0  0
 14 13  2  0  0  0  0
 15 16  2  0  0  0  0
 16 19  1  0  0  0  0
 16 17  1  0  0  0  0
 18 17  2  0  0  0  0
 18 10  1  0  0  0  0
 19 21  1  0  0  0  0
 20 19  2  0  0  0  0
 21 34  1  0  0  0  0
 21 22  1  0  0  0  0
 22 23  2  0  0  0  0
 22 24  2  0  0  0  0
 25 22  1  0  0  0  0
 25 27  1  0  0  0  0
 26 25  1  0  0  0  0
 27 28  1  0  0  0  0
 28 29  1  0  0  0  0
 29 30  1  0  0  0  0
 31 32  1  0  0  0  0
 31 30  1  0  0  0  0
 32 33  2  0  0  0  0
 35 31  1  0  0  0  0
 36 12  1  0  0  0  0
 37 36  1  0  0  0  0
 38 37  1  0  0  0  0
 39 38  1  0  0  0  0
 39 40  1  0  0  0  0
 40 41  1  0  0  0  0
 41 36  1  0  0  0  0
 43 42  1  0  0  0  0
M  END
>  <minimizedAffinity>
-4.91707182

$$$$
