
 OpenBabel09092210413D

 43 48  0  0  0  0  0  0  0  0999 V2000
    8.7790   -7.8410   -6.9260 C   0  0  0  0  0  0  0  0  0  0  0  0
    9.0230   -7.0430   -5.8130 C   0  0  0  0  0  3  0  0  0  0  0  0
    7.9870   -6.2880   -5.2540 C   0  0  0  0  0  3  0  0  0  0  0  0
    6.6870   -6.3190   -5.7850 C   0  0  0  0  0  0  0  0  0  0  0  0
    6.4500   -7.0950   -6.9400 C   0  0  0  0  0  0  0  0  0  0  0  0
    7.4960   -7.8620   -7.4820 C   0  0  0  0  0  3  0  0  0  0  0  0
    5.1460   -7.1660   -7.6260 C   0  0  0  0  0  3  0  0  0  0  0  0
    4.3500   -6.0920   -7.7770 C   0  0  0  0  0  0  0  0  0  0  0  0
    4.6760   -4.7090   -7.2960 C   0  0  0  0  0  2  0  0  0  0  0  0
    4.7630   -4.7070   -5.8360 N   0  0  0  0  0  0  0  0  0  0  0  0
    5.6320   -5.5190   -5.1250 C   0  0  0  0  0  0  0  0  0  0  0  0
    5.2520   -5.4470   -3.7840 C   0  0  0  0  0  0  0  0  0  0  0  0
    4.2060   -4.4620   -3.6940 C   0  0  0  0  0  0  0  0  0  0  0  0
    3.4530   -3.9270   -2.6220 C   0  0  0  0  0  3  0  0  0  0  0  0
    2.4590   -2.9750   -2.8650 C   0  0  0  0  0  3  0  0  0  0  0  0
    2.2040   -2.5510   -4.1670 C   0  0  0  0  0  0  0  0  0  0  0  0
    2.9660   -3.0180   -5.2440 C   0  0  0  0  0  3  0  0  0  0  0  0
    3.9420   -4.0000   -4.9850 C   0  0  0  0  0  0  0  0  0  0  0  0
    1.1600   -1.5320   -4.3700 C   0  0  0  0  0  0  0  0  0  0  0  0
    1.3550   -0.3710   -4.0430 O   0  0  0  0  0  0  0  0  0  0  0  0
   -0.1150   -1.9460   -4.7890 N   0  0  0  0  0  0  0  0  0  0  0  0
   -0.4830   -3.1640   -5.8390 S   0  0  0  0  0  0  0  0  0  0  0  0
   -1.9210   -3.1880   -5.9630 O   0  0  0  0  0  0  0  0  0  0  0  0
    0.3640   -3.0100   -6.9960 O   0  0  0  0  0  0  0  0  0  0  0  0
   -0.0080   -4.5210   -4.9770 N   0  0  0  0  0  0  0  0  0  0  0  0
   -0.8150   -4.8770   -3.7990 C   0  0  0  0  0  1  0  0  0  0  0  0
    0.4940   -5.6790   -5.7580 C   0  0  0  0  0  2  0  0  0  0  0  0
   -0.5760   -6.3170   -6.6420 C   0  0  0  0  0  2  0  0  0  0  0  0
   -0.1270   -7.6250   -7.3070 C   0  0  0  0  0  2  0  0  0  0  0  0
    0.9010   -7.4560   -8.4250 C   0  0  0  0  0  2  0  0  0  0  0  0
    2.2340   -7.1980   -7.9230 N   0  0  0  0  0  0  0  0  0  0  0  0
    3.0480   -6.2340   -8.4680 C   0  0  0  0  0  0  0  0  0  0  0  0
    2.7420   -5.4910   -9.3890 O   0  0  0  0  0  0  0  0  0  0  0  0
   -0.7500   -1.1620   -4.9160 H   0  0  0  0  0  0  0  0  0  0  0  0
    2.5930   -7.7780   -7.1740 H   0  0  0  0  0  0  0  0  0  0  0  0
    5.8190   -6.2720   -2.6450 C   0  0  0  0  0  3  0  0  0  0  0  0
    6.2350   -5.4100   -1.4410 C   0  0  0  0  0  2  0  0  0  0  0  0
    6.8330   -6.2610   -0.3230 C   0  0  0  0  0  2  0  0  0  0  0  0
    5.8910   -7.3870    0.0940 C   0  0  0  0  0  2  0  0  0  0  0  0
    5.4870   -8.2520   -1.0980 C   0  0  0  0  0  2  0  0  0  0  0  0
    4.8790   -7.4140   -2.2210 C   0  0  0  0  0  2  0  0  0  0  0  0
   11.0570   -8.2460   -7.4700 C   0  0  0  0  0  1  0  0  0  0  0  0
    9.6920   -8.6310   -7.5670 O   0  0  0  0  0  0  0  0  0  0  0  0
  1  2  1  0  0  0  0
  2  3  2  0  0  0  0
  4  3  1  0  0  0  0
  4 11  1  0  0  0  0
  5  4  2  0  0  0  0
  6  5  1  0  0  0  0
  6  1  2  0  0  0  0
  7  5  1  0  0  0  0
  8  7  2  0  0  0  0
  8  9  1  0  0  0  0
  9 10  1  0  0  0  0
 10 11  1  0  0  0  0
 10 18  1  0  0  0  0
 11 12  2  0  0  0  0
 12 13  1  0  0  0  0
 12 36  1  0  0  0  0
 13 14  1  0  0  0  0
 15 14  2  0  0  0  0
 16 15  1  0  0  0  0
 17 18  1  0  0  0  0
 17 16  2  0  0  0  0
 18 13  2  0  0  0  0
 19 16  1  0  0  0  0
 19 20  2  0  0  0  0
 21 19  1  0  0  0  0
 22 25  1  0  0  0  0
 22 21  1  0  0  0  0
 23 22  2  0  0  0  0
 24 22  2  0  0  0  0
 25 26  1  0  0  0  0
 27 25  1  0  0  0  0
 28 27  1  0  0  0  0
 29 28  1  0  0  0  0
 30 31  1  0  0  0  0
 30 29  1  0  0  0  0
 31 35  1  0  0  0  0
 32 31  1  0  0  0  0
 32  8  1  0  0  0  0
 33 32  2  0  0  0  0
 34 21  1  0  0  0  0
 36 41  1  0  0  0  0
 36 37  1  0  0  0  0
 37 38  1  0  0  0  0
 38 39  1  0  0  0  0
 40 39  1  0  0  0  0
 41 40  1  0  0  0  0
 43 42  1  0  0  0  0
 43  1  1  0  0  0  0
M  END
>  <minimizedAffinity>
-5.02266121

$$$$
