
 OpenBabel09132204463D

 36 39  0  0  1  0  0  0  0  0999 V2000
    2.9800   -5.0680    9.6910 N   0  0  0  0  0  0  0  0  0  0  0  0
    2.9250   -4.9750    8.3170 C   0  0  0  0  0  0  0  0  0  0  0  0
    2.4970   -3.9870    7.7140 O   0  0  0  0  0  0  0  0  0  0  0  0
    3.5280   -6.0790    7.5060 C   0  0  0  0  0  0  0  0  0  0  0  0
    3.8460   -7.2300    8.1250 C   0  0  0  0  0  0  0  0  0  0  0  0
    3.5930   -7.4110    9.5640 C   0  0  0  0  0  0  0  0  0  0  0  0
    3.7070   -8.6470   10.2160 C   0  0  0  0  0  3  0  0  0  0  0  0
    3.5350   -8.7280   11.5940 C   0  0  0  0  0  3  0  0  0  0  0  0
    3.2440   -7.5670   12.2820 C   0  0  0  0  0  3  0  0  0  0  0  0
    3.0930   -6.3700   11.6810 N   0  0  0  0  0  0  0  0  0  0  0  0
    3.2420   -6.3010   10.3390 C   0  0  0  0  0  0  0  0  0  0  0  0
    3.8500   -5.7610    6.0660 C   0  0  1  0  0  3  0  0  0  0  0  0
    4.5150   -4.6720    5.7620 N   0  0  0  0  0  0  0  0  0  0  0  0
    4.9450   -4.2130    4.2900 S   0  0  0  0  0  0  0  0  0  0  0  0
    3.9840   -3.2680    3.7570 O   0  0  0  0  0  0  0  0  0  0  0  0
    6.3540   -3.8740    4.2980 O   0  0  0  0  0  0  0  0  0  0  0  0
    4.8060   -5.6500    3.2810 C   0  0  0  0  0  0  0  0  0  0  0  0
    5.4960   -5.7130    2.0670 C   0  0  0  0  0  3  0  0  0  0  0  0
    5.3730   -6.8600    1.2910 C   0  0  0  0  0  0  0  0  0  0  0  0
    4.5860   -7.9230    1.7310 C   0  0  0  0  0  3  0  0  0  0  0  0
    3.9110   -7.8440    2.9550 C   0  0  0  0  0  3  0  0  0  0  0  0
    4.0370   -6.7070    3.7560 C   0  0  0  0  0  0  0  0  0  0  0  0
    3.5090   -6.6770    5.0420 N   0  0  0  0  0  0  0  0  0  0  0  0
    4.7640   -4.0400    6.5180 H   0  0  0  0  0  0  0  0  0  0  0  0
    2.9380   -7.4670    5.3490 H   0  0  0  0  0  0  0  0  0  0  0  0
    6.1010   -7.0500    0.1530 O   0  0  0  0  0  0  0  0  0  0  0  0
    5.9770   -5.9880   -0.8000 C   0  0  0  0  0  2  0  0  0  0  0  0
    7.3180   -5.3060   -1.0170 C   0  0  0  0  0  2  0  0  0  0  0  0
    8.4310   -4.7410   -1.1960 N   0  0  0  0  0  1  0  0  0  0  0  0
    4.5020   -8.2460    7.4450 O   0  0  0  0  0  0  0  0  0  0  0  0
    4.9830   -8.8040    8.0850 H   0  0  0  0  0  0  0  0  0  0  0  0
    2.6700   -3.8840   10.4980 C   0  0  0  0  0  2  0  0  0  0  0  0
    3.8850   -2.9640   10.7250 C   0  0  0  0  0  2  0  0  0  0  0  0
    2.7180   -1.0370    9.6090 C   0  0  0  0  0  1  0  0  0  0  0  0
    3.5710   -1.4580   10.8090 C   0  0  0  0  0  3  0  0  0  0  0  0
    2.8540   -1.0900   12.1070 C   0  0  0  0  0  1  0  0  0  0  0  0
  1 11  1  0  0  0  0
  1 32  1  0  0  0  0
  2  1  1  0  0  0  0
  3  2  2  0  0  0  0
  4  5  2  0  0  0  0
  4  2  1  0  0  0  0
  5  6  1  0  0  0  0
  6  7  2  0  0  0  0
  6 11  1  0  0  0  0
  7  8  1  0  0  0  0
  8  9  2  0  0  0  0
 10  9  1  0  0  0  0
 11 10  2  0  0  0  0
 12  4  1  1  0  0  0
 13 12  1  0  0  0  0
 13 24  1  0  0  0  0
 14 16  2  0  0  0  0
 14 13  1  0  0  0  0
 15 14  2  0  0  0  0
 17 22  1  0  0  0  0
 17 14  1  0  0  0  0
 18 17  2  0  0  0  0
 19 20  2  0  0  0  0
 19 18  1  0  0  0  0
 20 21  1  0  0  0  0
 21 22  2  0  0  0  0
 22 23  1  0  0  0  0
 23 25  1  0  0  0  0
 23 12  1  0  0  0  0
 26 19  1  0  0  0  0
 27 26  1  0  0  0  0
 28 27  1  0  0  0  0
 29 28  1  0  0  0  0
 30 31  1  0  0  0  0
 30  5  1  0  0  0  0
 32 33  1  0  0  0  0
 33 35  1  0  0  0  0
 34 35  1  0  0  0  0
 35 36  1  0  0  0  0
M  END
>  <minimizedAffinity>
-7.11411524

$$$$
