
 OpenBabel09122222563D

 36 39  0  0  1  0  0  0  0  0999 V2000
    6.2790   -5.3290    1.8310 N   0  0  0  0  0  0  0  0  0  0  0  0
    5.6310   -4.7870    2.9200 C   0  0  0  0  0  0  0  0  0  0  0  0
    4.5010   -5.1290    3.2840 O   0  0  0  0  0  0  0  0  0  0  0  0
    6.3780   -3.8190    3.7820 C   0  0  0  0  0  0  0  0  0  0  0  0
    7.5340   -3.3090    3.3210 C   0  0  0  0  0  0  0  0  0  0  0  0
    8.0470   -3.6770    1.9910 C   0  0  0  0  0  0  0  0  0  0  0  0
    9.1260   -3.0260    1.3740 C   0  0  0  0  0  3  0  0  0  0  0  0
    9.6100   -3.4820    0.1530 C   0  0  0  0  0  3  0  0  0  0  0  0
    8.9950   -4.5760   -0.4230 C   0  0  0  0  0  3  0  0  0  0  0  0
    7.9350   -5.2020    0.1260 N   0  0  0  0  0  0  0  0  0  0  0  0
    7.4560   -4.7430    1.3030 C   0  0  0  0  0  0  0  0  0  0  0  0
    5.8320   -3.5890    5.1700 C   0  0  1  0  0  3  0  0  0  0  0  0
    6.5890   -3.7960    6.2210 N   0  0  0  0  0  0  0  0  0  0  0  0
    6.1580   -3.5780    7.7480 S   0  0  0  0  0  0  0  0  0  0  0  0
    5.7310   -4.8320    8.3340 O   0  0  0  0  0  0  0  0  0  0  0  0
    7.1730   -2.7850    8.4130 O   0  0  0  0  0  0  0  0  0  0  0  0
    4.7190   -2.5640    7.6990 C   0  0  0  0  0  0  0  0  0  0  0  0
    4.3400   -1.8430    8.8340 C   0  0  0  0  0  3  0  0  0  0  0  0
    3.2030   -1.0470    8.7680 C   0  0  0  0  0  0  0  0  0  0  0  0
    2.4710   -0.9660    7.5840 C   0  0  0  0  0  3  0  0  0  0  0  0
    2.8730   -1.6870    6.4550 C   0  0  0  0  0  3  0  0  0  0  0  0
    4.0230   -2.4790    6.4970 C   0  0  0  0  0  0  0  0  0  0  0  0
    4.5270   -3.0700    5.3430 N   0  0  0  0  0  0  0  0  0  0  0  0
    7.5290   -4.1510    6.0690 H   0  0  0  0  0  0  0  0  0  0  0  0
    3.9790   -2.9970    4.4840 H   0  0  0  0  0  0  0  0  0  0  0  0
    2.8300   -0.2240    9.7910 O   0  0  0  0  0  0  0  0  0  0  0  0
    3.9270    0.4270   10.4420 C   0  0  0  0  0  2  0  0  0  0  0  0
    3.8900    0.1630   11.9390 C   0  0  0  0  0  2  0  0  0  0  0  0
    3.8610   -0.0550   13.1800 N   0  0  0  0  0  1  0  0  0  0  0  0
    8.3200   -2.4910    4.1190 O   0  0  0  0  0  0  0  0  0  0  0  0
    9.2440   -2.5300    3.8100 H   0  0  0  0  0  0  0  0  0  0  0  0
    5.6850   -6.4840    1.1500 C   0  0  0  0  0  2  0  0  0  0  0  0
    6.1590   -7.8370    1.7180 C   0  0  0  0  0  2  0  0  0  0  0  0
    4.0020   -9.1290    1.7610 C   0  0  0  0  0  1  0  0  0  0  0  0
    5.1440   -8.5710    2.6150 C   0  0  0  0  0  3  0  0  0  0  0  0
    5.7920   -9.7010    3.4140 C   0  0  0  0  0  1  0  0  0  0  0  0
  1  2  1  0  0  0  0
  2  3  2  0  0  0  0
  2  4  1  0  0  0  0
  5  4  2  0  0  0  0
  5 30  1  0  0  0  0
  6  5  1  0  0  0  0
  7  6  1  0  0  0  0
  8  7  2  0  0  0  0
  9 10  2  0  0  0  0
  9  8  1  0  0  0  0
 10 11  1  0  0  0  0
 11  1  1  0  0  0  0
 11  6  2  0  0  0  0
 12  4  1  6  0  0  0
 12 23  1  0  0  0  0
 12 13  1  0  0  0  0
 13 14  1  0  0  0  0
 14 15  2  0  0  0  0
 14 16  2  0  0  0  0
 17 14  1  0  0  0  0
 17 18  1  0  0  0  0
 19 18  2  0  0  0  0
 19 26  1  0  0  0  0
 20 19  1  0  0  0  0
 21 22  1  0  0  0  0
 21 20  2  0  0  0  0
 22 17  2  0  0  0  0
 23 22  1  0  0  0  0
 24 13  1  0  0  0  0
 25 23  1  0  0  0  0
 26 27  1  0  0  0  0
 27 28  1  0  0  0  0
 28 29  1  0  0  0  0
 31 30  1  0  0  0  0
 32 33  1  0  0  0  0
 32  1  1  0  0  0  0
 33 35  1  0  0  0  0
 34 35  1  0  0  0  0
 35 36  1  0  0  0  0
M  END
>  <minimizedAffinity>
-7.34254694

$$$$

 OpenBabel09122222563D

 36 39  0  0  1  0  0  0  0  0999 V2000
    5.2010   -5.9580    2.2740 N   0  0  0  0  0  0  0  0  0  0  0  0
    5.3330   -5.0610    3.3120 C   0  0  0  0  0  0  0  0  0  0  0  0
    6.1220   -4.1110    3.3000 O   0  0  0  0  0  0  0  0  0  0  0  0
    4.3880   -5.1670    4.4680 C   0  0  0  0  0  0  0  0  0  0  0  0
    3.6390   -6.2790    4.5830 C   0  0  0  0  0  0  0  0  0  0  0  0
    3.7570   -7.3770    3.6100 C   0  0  0  0  0  0  0  0  0  0  0  0
    3.1630   -8.6340    3.7910 C   0  0  0  0  0  3  0  0  0  0  0  0
    3.2460   -9.5960    2.7900 C   0  0  0  0  0  3  0  0  0  0  0  0
    3.9290   -9.2740    1.6340 C   0  0  0  0  0  3  0  0  0  0  0  0
    4.5390   -8.0880    1.4420 N   0  0  0  0  0  0  0  0  0  0  0  0
    4.4720   -7.1640    2.4260 C   0  0  0  0  0  0  0  0  0  0  0  0
    4.2580   -3.9490    5.3490 C   0  0  1  0  0  3  0  0  0  0  0  0
    3.1040   -3.6500    5.8970 N   0  0  0  0  0  0  0  0  0  0  0  0
    2.8180   -2.4070    6.8650 S   0  0  0  0  0  0  0  0  0  0  0  0
    2.2680   -1.2980    6.1110 O   0  0  0  0  0  0  0  0  0  0  0  0
    2.1250   -2.8830    8.0460 O   0  0  0  0  0  0  0  0  0  0  0  0
    4.3960   -1.8630    7.4260 C   0  0  0  0  0  0  0  0  0  0  0  0
    4.4910   -1.0940    8.5890 C   0  0  0  0  0  3  0  0  0  0  0  0
    5.7480   -0.6810    9.0130 C   0  0  0  0  0  0  0  0  0  0  0  0
    6.8850   -1.0440    8.2920 C   0  0  0  0  0  3  0  0  0  0  0  0
    6.7700   -1.8230    7.1350 C   0  0  0  0  0  3  0  0  0  0  0  0
    5.5160   -2.2620    6.7040 C   0  0  0  0  0  0  0  0  0  0  0  0
    5.3980   -3.1690    5.6560 N   0  0  0  0  0  0  0  0  0  0  0  0
    2.3050   -4.2370    5.6750 H   0  0  0  0  0  0  0  0  0  0  0  0
    6.2420   -3.4260    5.1420 H   0  0  0  0  0  0  0  0  0  0  0  0
    5.9400   -0.0280   10.1950 O   0  0  0  0  0  0  0  0  0  0  0  0
    4.8310    0.7840   10.5970 C   0  0  0  0  0  2  0  0  0  0  0  0
    4.3540    0.3870   11.9850 C   0  0  0  0  0  2  0  0  0  0  0  0
    3.9590    0.0580   13.1360 N   0  0  0  0  0  1  0  0  0  0  0  0
    2.6730   -6.3860    5.5730 O   0  0  0  0  0  0  0  0  0  0  0  0
    1.9960   -7.0310    5.2950 H   0  0  0  0  0  0  0  0  0  0  0  0
    5.9060   -5.6990    1.0150 C   0  0  0  0  0  2  0  0  0  0  0  0
    7.4220   -5.9680    1.0970 C   0  0  0  0  0  2  0  0  0  0  0  0
    7.4790   -4.9560   -1.2040 C   0  0  0  0  0  1  0  0  0  0  0  0
    8.2870   -5.2080    0.0730 C   0  0  0  0  0  3  0  0  0  0  0  0
    8.8050   -3.8820    0.6270 C   0  0  0  0  0  1  0  0  0  0  0  0
  1 11  1  0  0  0  0
  1  2  1  0  0  0  0
  2  4  1  0  0  0  0
  3  2  2  0  0  0  0
  4  5  2  0  0  0  0
  5 30  1  0  0  0  0
  6  7  1  0  0  0  0
  6  5  1  0  0  0  0
  8  7  2  0  0  0  0
  9  8  1  0  0  0  0
 10  9  2  0  0  0  0
 10 11  1  0  0  0  0
 11  6  2  0  0  0  0
 12  4  1  1  0  0  0
 12 23  1  0  0  0  0
 12 13  1  0  0  0  0
 13 14  1  0  0  0  0
 14 17  1  0  0  0  0
 14 16  2  0  0  0  0
 15 14  2  0  0  0  0
 17 18  1  0  0  0  0
 18 19  2  0  0  0  0
 19 26  1  0  0  0  0
 20 19  1  0  0  0  0
 21 20  2  0  0  0  0
 22 21  1  0  0  0  0
 22 17  2  0  0  0  0
 23 22  1  0  0  0  0
 24 13  1  0  0  0  0
 25 23  1  0  0  0  0
 26 27  1  0  0  0  0
 27 28  1  0  0  0  0
 28 29  1  0  0  0  0
 31 30  1  0  0  0  0
 32 33  1  0  0  0  0
 32  1  1  0  0  0  0
 34 35  1  0  0  0  0
 35 36  1  0  0  0  0
 35 33  1  0  0  0  0
M  END
>  <minimizedAffinity>
-7.12955904

$$$$

 OpenBabel09122222563D

 36 39  0  0  1  0  0  0  0  0999 V2000
    2.9800   -5.0680    9.6910 N   0  0  0  0  0  0  0  0  0  0  0  0
    2.9250   -4.9750    8.3170 C   0  0  0  0  0  0  0  0  0  0  0  0
    2.4970   -3.9870    7.7140 O   0  0  0  0  0  0  0  0  0  0  0  0
    3.5280   -6.0790    7.5060 C   0  0  0  0  0  0  0  0  0  0  0  0
    3.8460   -7.2300    8.1250 C   0  0  0  0  0  0  0  0  0  0  0  0
    3.5930   -7.4110    9.5640 C   0  0  0  0  0  0  0  0  0  0  0  0
    3.7070   -8.6470   10.2160 C   0  0  0  0  0  3  0  0  0  0  0  0
    3.5350   -8.7280   11.5940 C   0  0  0  0  0  3  0  0  0  0  0  0
    3.2440   -7.5670   12.2820 C   0  0  0  0  0  3  0  0  0  0  0  0
    3.0930   -6.3700   11.6810 N   0  0  0  0  0  0  0  0  0  0  0  0
    3.2420   -6.3010   10.3390 C   0  0  0  0  0  0  0  0  0  0  0  0
    3.8500   -5.7610    6.0660 C   0  0  1  0  0  3  0  0  0  0  0  0
    4.5150   -4.6720    5.7620 N   0  0  0  0  0  0  0  0  0  0  0  0
    4.9450   -4.2130    4.2900 S   0  0  0  0  0  0  0  0  0  0  0  0
    3.9840   -3.2680    3.7570 O   0  0  0  0  0  0  0  0  0  0  0  0
    6.3540   -3.8740    4.2980 O   0  0  0  0  0  0  0  0  0  0  0  0
    4.8060   -5.6500    3.2810 C   0  0  0  0  0  0  0  0  0  0  0  0
    5.4960   -5.7130    2.0670 C   0  0  0  0  0  3  0  0  0  0  0  0
    5.3730   -6.8600    1.2910 C   0  0  0  0  0  0  0  0  0  0  0  0
    4.5860   -7.9230    1.7310 C   0  0  0  0  0  3  0  0  0  0  0  0
    3.9110   -7.8440    2.9550 C   0  0  0  0  0  3  0  0  0  0  0  0
    4.0370   -6.7070    3.7560 C   0  0  0  0  0  0  0  0  0  0  0  0
    3.5090   -6.6770    5.0420 N   0  0  0  0  0  0  0  0  0  0  0  0
    4.7640   -4.0400    6.5180 H   0  0  0  0  0  0  0  0  0  0  0  0
    2.9380   -7.4670    5.3490 H   0  0  0  0  0  0  0  0  0  0  0  0
    6.1010   -7.0500    0.1530 O   0  0  0  0  0  0  0  0  0  0  0  0
    5.9770   -5.9880   -0.8000 C   0  0  0  0  0  2  0  0  0  0  0  0
    7.3180   -5.3060   -1.0170 C   0  0  0  0  0  2  0  0  0  0  0  0
    8.4310   -4.7410   -1.1960 N   0  0  0  0  0  1  0  0  0  0  0  0
    4.5020   -8.2460    7.4450 O   0  0  0  0  0  0  0  0  0  0  0  0
    4.9830   -8.8040    8.0850 H   0  0  0  0  0  0  0  0  0  0  0  0
    2.6700   -3.8840   10.4980 C   0  0  0  0  0  2  0  0  0  0  0  0
    3.8850   -2.9640   10.7250 C   0  0  0  0  0  2  0  0  0  0  0  0
    2.7180   -1.0370    9.6090 C   0  0  0  0  0  1  0  0  0  0  0  0
    3.5710   -1.4580   10.8090 C   0  0  0  0  0  3  0  0  0  0  0  0
    2.8540   -1.0900   12.1070 C   0  0  0  0  0  1  0  0  0  0  0  0
  1 11  1  0  0  0  0
  1 32  1  0  0  0  0
  2  1  1  0  0  0  0
  3  2  2  0  0  0  0
  4  5  2  0  0  0  0
  4  2  1  0  0  0  0
  5  6  1  0  0  0  0
  6  7  2  0  0  0  0
  6 11  1  0  0  0  0
  7  8  1  0  0  0  0
  8  9  2  0  0  0  0
 10  9  1  0  0  0  0
 11 10  2  0  0  0  0
 12  4  1  1  0  0  0
 13 12  1  0  0  0  0
 13 24  1  0  0  0  0
 14 16  2  0  0  0  0
 14 13  1  0  0  0  0
 15 14  2  0  0  0  0
 17 22  1  0  0  0  0
 17 14  1  0  0  0  0
 18 17  2  0  0  0  0
 19 20  2  0  0  0  0
 19 18  1  0  0  0  0
 20 21  1  0  0  0  0
 21 22  2  0  0  0  0
 22 23  1  0  0  0  0
 23 25  1  0  0  0  0
 23 12  1  0  0  0  0
 26 19  1  0  0  0  0
 27 26  1  0  0  0  0
 28 27  1  0  0  0  0
 29 28  1  0  0  0  0
 30 31  1  0  0  0  0
 30  5  1  0  0  0  0
 32 33  1  0  0  0  0
 33 35  1  0  0  0  0
 34 35  1  0  0  0  0
 35 36  1  0  0  0  0
M  END
>  <minimizedAffinity>
-7.11411524

$$$$

 OpenBabel09122222563D

 36 39  0  0  1  0  0  0  0  0999 V2000
    4.7490   -6.0460    2.6190 N   0  0  0  0  0  0  0  0  0  0  0  0
    4.7030   -5.5550    3.9060 C   0  0  0  0  0  0  0  0  0  0  0  0
    5.3600   -4.5830    4.2920 O   0  0  0  0  0  0  0  0  0  0  0  0
    3.7150   -6.1510    4.8590 C   0  0  0  0  0  0  0  0  0  0  0  0
    3.1130   -7.3060    4.5200 C   0  0  0  0  0  0  0  0  0  0  0  0
    3.4300   -7.9810    3.2510 C   0  0  0  0  0  0  0  0  0  0  0  0
    2.9980   -9.2780    2.9400 C   0  0  0  0  0  3  0  0  0  0  0  0
    3.2640   -9.8200    1.6870 C   0  0  0  0  0  3  0  0  0  0  0  0
    3.9630   -9.0500    0.7800 C   0  0  0  0  0  3  0  0  0  0  0  0
    4.4220   -7.8140    1.0590 N   0  0  0  0  0  0  0  0  0  0  0  0
    4.1780   -7.2990    2.2850 C   0  0  0  0  0  0  0  0  0  0  0  0
    3.3760   -5.3330    6.0810 C   0  0  1  0  0  3  0  0  0  0  0  0
    3.6150   -5.8060    7.2810 N   0  0  0  0  0  0  0  0  0  0  0  0
    3.3290   -5.0520    8.6640 S   0  0  0  0  0  0  0  0  0  0  0  0
    2.0560   -5.4730    9.2130 O   0  0  0  0  0  0  0  0  0  0  0  0
    4.5200   -5.1160    9.4870 O   0  0  0  0  0  0  0  0  0  0  0  0
    3.1280   -3.3520    8.2490 C   0  0  0  0  0  0  0  0  0  0  0  0
    3.2890   -2.3750    9.2340 C   0  0  0  0  0  3  0  0  0  0  0  0
    3.1290   -1.0400    8.8800 C   0  0  0  0  0  0  0  0  0  0  0  0
    2.8270   -0.6950    7.5630 C   0  0  0  0  0  3  0  0  0  0  0  0
    2.6800   -1.6890    6.5890 C   0  0  0  0  0  3  0  0  0  0  0  0
    2.8550   -3.0340    6.9220 C   0  0  0  0  0  0  0  0  0  0  0  0
    2.8740   -4.0180    5.9390 N   0  0  0  0  0  0  0  0  0  0  0  0
    3.9930   -6.7470    7.3550 H   0  0  0  0  0  0  0  0  0  0  0  0
    2.6540   -3.7460    4.9790 H   0  0  0  0  0  0  0  0  0  0  0  0
    3.3820   -0.0210    9.7510 O   0  0  0  0  0  0  0  0  0  0  0  0
    4.7020   -0.0450   10.3070 C   0  0  0  0  0  2  0  0  0  0  0  0
    4.6470    0.1200   11.8170 C   0  0  0  0  0  2  0  0  0  0  0  0
    4.6020    0.2570   13.0690 N   0  0  0  0  0  1  0  0  0  0  0  0
    2.1150   -7.8480    5.3160 O   0  0  0  0  0  0  0  0  0  0  0  0
    1.5450   -8.4230    4.7710 H   0  0  0  0  0  0  0  0  0  0  0  0
    5.4850   -5.2970    1.5960 C   0  0  0  0  0  2  0  0  0  0  0  0
    7.0030   -5.5650    1.6170 C   0  0  0  0  0  2  0  0  0  0  0  0
    6.6180   -5.6080   -0.8680 C   0  0  0  0  0  1  0  0  0  0  0  0
    7.6800   -5.6480    0.2350 C   0  0  0  0  0  3  0  0  0  0  0  0
    8.6920   -4.5240    0.0200 C   0  0  0  0  0  1  0  0  0  0  0  0
  1  2  1  0  0  0  0
  2  3  2  0  0  0  0
  2  4  1  0  0  0  0
  5  4  2  0  0  0  0
  5 30  1  0  0  0  0
  6  5  1  0  0  0  0
  7  6  1  0  0  0  0
  8  7  2  0  0  0  0
  9 10  2  0  0  0  0
  9  8  1  0  0  0  0
 10 11  1  0  0  0  0
 11  1  1  0  0  0  0
 11  6  2  0  0  0  0
 12  4  1  6  0  0  0
 12 13  1  0  0  0  0
 13 24  1  0  0  0  0
 13 14  1  0  0  0  0
 14 15  2  0  0  0  0
 14 16  2  0  0  0  0
 17 14  1  0  0  0  0
 17 18  1  0  0  0  0
 19 18  2  0  0  0  0
 19 26  1  0  0  0  0
 20 19  1  0  0  0  0
 21 22  1  0  0  0  0
 21 20  2  0  0  0  0
 22 17  2  0  0  0  0
 23 12  1  0  0  0  0
 23 22  1  0  0  0  0
 25 23  1  0  0  0  0
 26 27  1  0  0  0  0
 27 28  1  0  0  0  0
 28 29  1  0  0  0  0
 31 30  1  0  0  0  0
 32 33  1  0  0  0  0
 32  1  1  0  0  0  0
 34 35  1  0  0  0  0
 35 33  1  0  0  0  0
 36 35  1  0  0  0  0
M  END
>  <minimizedAffinity>
-7.09252119

$$$$

 OpenBabel09122222563D

 36 39  0  0  1  0  0  0  0  0999 V2000
   -0.2160   -7.2030    8.5220 N   0  0  0  0  0  0  0  0  0  0  0  0
    0.8130   -6.9250    7.6490 C   0  0  0  0  0  0  0  0  0  0  0  0
    1.8780   -6.4010    7.9900 O   0  0  0  0  0  0  0  0  0  0  0  0
    0.6890   -7.3900    6.2320 C   0  0  0  0  0  0  0  0  0  0  0  0
   -0.5130   -7.8090    5.7980 C   0  0  0  0  0  0  0  0  0  0  0  0
   -1.6870   -7.7940    6.6860 C   0  0  0  0  0  0  0  0  0  0  0  0
   -2.9960   -8.0170    6.2360 C   0  0  0  0  0  3  0  0  0  0  0  0
   -4.0470   -8.0710    7.1460 C   0  0  0  0  0  3  0  0  0  0  0  0
   -3.7590   -7.8930    8.4830 C   0  0  0  0  0  3  0  0  0  0  0  0
   -2.5170   -7.6430    8.9450 N   0  0  0  0  0  0  0  0  0  0  0  0
   -1.5030   -7.5710    8.0550 C   0  0  0  0  0  0  0  0  0  0  0  0
    1.9670   -7.4720    5.4330 C   0  0  1  0  0  3  0  0  0  0  0  0
    2.3700   -8.6230    4.9470 N   0  0  0  0  0  0  0  0  0  0  0  0
    3.6870   -8.8620    4.0680 S   0  0  0  0  0  0  0  0  0  0  0  0
    4.7760   -9.3160    4.9090 O   0  0  0  0  0  0  0  0  0  0  0  0
    3.3290   -9.6220    2.8870 O   0  0  0  0  0  0  0  0  0  0  0  0
    4.1690   -7.2720    3.4850 C   0  0  0  0  0  0  0  0  0  0  0  0
    5.0030   -7.1680    2.3690 C   0  0  0  0  0  3  0  0  0  0  0  0
    5.3660   -5.9010    1.9250 C   0  0  0  0  0  0  0  0  0  0  0  0
    4.8900   -4.7660    2.5800 C   0  0  0  0  0  3  0  0  0  0  0  0
    4.0460   -4.8920    3.6900 C   0  0  0  0  0  3  0  0  0  0  0  0
    3.6570   -6.1560    4.1390 C   0  0  0  0  0  0  0  0  0  0  0  0
    2.6950   -6.2960    5.1330 N   0  0  0  0  0  0  0  0  0  0  0  0
    1.8190   -9.4490    5.1610 H   0  0  0  0  0  0  0  0  0  0  0  0
    2.3540   -5.4540    5.5980 H   0  0  0  0  0  0  0  0  0  0  0  0
    6.0800   -5.7080    0.7790 O   0  0  0  0  0  0  0  0  0  0  0  0
    7.4950   -5.6250    0.9840 C   0  0  0  0  0  2  0  0  0  0  0  0
    8.1780   -5.0490   -0.2470 C   0  0  0  0  0  2  0  0  0  0  0  0
    8.7450   -4.5710   -1.2660 N   0  0  0  0  0  1  0  0  0  0  0  0
   -0.6630   -8.3480    4.5280 O   0  0  0  0  0  0  0  0  0  0  0  0
   -1.4470   -8.9290    4.5140 H   0  0  0  0  0  0  0  0  0  0  0  0
    0.0010   -7.0250    9.9600 C   0  0  0  0  0  2  0  0  0  0  0  0
    0.7080   -8.2230   10.6240 C   0  0  0  0  0  2  0  0  0  0  0  0
    3.2100   -8.4790   10.6270 C   0  0  0  0  0  1  0  0  0  0  0  0
    2.0110   -7.8910   11.3770 C   0  0  0  0  0  3  0  0  0  0  0  0
    2.2030   -6.3870   11.5610 C   0  0  0  0  0  1  0  0  0  0  0  0
  1 32  1  0  0  0  0
  2  3  2  0  0  0  0
  2  1  1  0  0  0  0
  4  2  1  0  0  0  0
  5  4  2  0  0  0  0
  5  6  1  0  0  0  0
  6 11  1  0  0  0  0
  7  6  2  0  0  0  0
  7  8  1  0  0  0  0
  8  9  2  0  0  0  0
  9 10  1  0  0  0  0
 11  1  1  0  0  0  0
 11 10  2  0  0  0  0
 12  4  1  6  0  0  0
 13 24  1  0  0  0  0
 13 12  1  0  0  0  0
 14 15  2  0  0  0  0
 14 13  1  0  0  0  0
 16 14  2  0  0  0  0
 17 14  1  0  0  0  0
 17 22  1  0  0  0  0
 18 17  2  0  0  0  0
 19 18  1  0  0  0  0
 19 20  2  0  0  0  0
 20 21  1  0  0  0  0
 21 22  2  0  0  0  0
 22 23  1  0  0  0  0
 23 12  1  0  0  0  0
 23 25  1  0  0  0  0
 26 27  1  0  0  0  0
 26 19  1  0  0  0  0
 28 27  1  0  0  0  0
 29 28  1  0  0  0  0
 30  5  1  0  0  0  0
 31 30  1  0  0  0  0
 32 33  1  0  0  0  0
 33 35  1  0  0  0  0
 34 35  1  0  0  0  0
 35 36  1  0  0  0  0
M  END
>  <minimizedAffinity>
-7.05451012

$$$$

 OpenBabel09122222563D

 36 39  0  0  1  0  0  0  0  0999 V2000
    3.9820   -7.0090    3.2940 N   0  0  0  0  0  0  0  0  0  0  0  0
    3.4630   -6.0740    4.1640 C   0  0  0  0  0  0  0  0  0  0  0  0
    2.4070   -6.2290    4.7850 O   0  0  0  0  0  0  0  0  0  0  0  0
    4.2780   -4.8570    4.4680 C   0  0  0  0  0  0  0  0  0  0  0  0
    5.3400   -4.5850    3.6890 C   0  0  0  0  0  0  0  0  0  0  0  0
    5.6860   -5.4510    2.5500 C   0  0  0  0  0  0  0  0  0  0  0  0
    6.6450   -5.1100    1.5860 C   0  0  0  0  0  3  0  0  0  0  0  0
    6.9810   -6.0150    0.5850 C   0  0  0  0  0  3  0  0  0  0  0  0
    6.3410   -7.2370    0.5720 C   0  0  0  0  0  3  0  0  0  0  0  0
    5.3900   -7.5840    1.4630 N   0  0  0  0  0  0  0  0  0  0  0  0
    5.0540   -6.6930    2.4220 C   0  0  0  0  0  0  0  0  0  0  0  0
    3.9110   -4.0930    5.7170 C   0  0  1  0  0  3  0  0  0  0  0  0
    3.6030   -2.8200    5.6470 N   0  0  0  0  0  0  0  0  0  0  0  0
    3.1780   -1.8860    6.8760 S   0  0  0  0  0  0  0  0  0  0  0  0
    4.3240   -1.1480    7.3680 O   0  0  0  0  0  0  0  0  0  0  0  0
    1.9640   -1.1760    6.5260 O   0  0  0  0  0  0  0  0  0  0  0  0
    2.7280   -2.9840    8.1780 C   0  0  0  0  0  0  0  0  0  0  0  0
    1.9190   -2.5270    9.2210 C   0  0  0  0  0  3  0  0  0  0  0  0
    1.5750   -3.4150   10.2340 C   0  0  0  0  0  0  0  0  0  0  0  0
    2.0220   -4.7350   10.1920 C   0  0  0  0  0  3  0  0  0  0  0  0
    2.8220   -5.1760    9.1320 C   0  0  0  0  0  3  0  0  0  0  0  0
    3.1640   -4.3030    8.0970 C   0  0  0  0  0  0  0  0  0  0  0  0
    3.8180   -4.7640    6.9590 N   0  0  0  0  0  0  0  0  0  0  0  0
    3.6600   -2.3650    4.7400 H   0  0  0  0  0  0  0  0  0  0  0  0
    4.1350   -5.7350    6.9440 H   0  0  0  0  0  0  0  0  0  0  0  0
    0.6980   -3.0830   11.2250 O   0  0  0  0  0  0  0  0  0  0  0  0
    1.2830   -3.0570   12.5330 C   0  0  0  0  0  2  0  0  0  0  0  0
    1.8640   -1.6840   12.8290 C   0  0  0  0  0  2  0  0  0  0  0  0
    2.3460   -0.5450   13.0750 N   0  0  0  0  0  1  0  0  0  0  0  0
    6.1900   -3.5300    3.9870 O   0  0  0  0  0  0  0  0  0  0  0  0
    7.0660   -3.7000    3.5940 H   0  0  0  0  0  0  0  0  0  0  0  0
    3.3520   -8.3290    3.2070 C   0  0  0  0  0  2  0  0  0  0  0  0
    3.9530   -9.3590    4.1840 C   0  0  0  0  0  2  0  0  0  0  0  0
    3.3680   -9.0500    6.6100 C   0  0  0  0  0  1  0  0  0  0  0  0
    3.0230   -9.8110    5.3270 C   0  0  0  0  0  3  0  0  0  0  0  0
    1.5480   -9.6070    4.9850 C   0  0  0  0  0  1  0  0  0  0  0  0
  1  2  1  0  0  0  0
  2  4  1  0  0  0  0
  2  3  2  0  0  0  0
  5 30  1  0  0  0  0
  5  4  2  0  0  0  0
  6  5  1  0  0  0  0
  7  6  2  0  0  0  0
  8  7  1  0  0  0  0
  9  8  2  0  0  0  0
  9 10  1  0  0  0  0
 10 11  2  0  0  0  0
 11  6  1  0  0  0  0
 11  1  1  0  0  0  0
 12  4  1  6  0  0  0
 12 23  1  0  0  0  0
 13 12  1  0  0  0  0
 13 14  1  0  0  0  0
 14 15  2  0  0  0  0
 14 17  1  0  0  0  0
 16 14  2  0  0  0  0
 17 18  1  0  0  0  0
 18 19  2  0  0  0  0
 19 26  1  0  0  0  0
 20 19  1  0  0  0  0
 21 20  2  0  0  0  0
 22 17  2  0  0  0  0
 22 21  1  0  0  0  0
 23 22  1  0  0  0  0
 24 13  1  0  0  0  0
 25 23  1  0  0  0  0
 26 27  1  0  0  0  0
 27 28  1  0  0  0  0
 28 29  1  0  0  0  0
 31 30  1  0  0  0  0
 32  1  1  0  0  0  0
 32 33  1  0  0  0  0
 33 35  1  0  0  0  0
 35 34  1  0  0  0  0
 36 35  1  0  0  0  0
M  END
>  <minimizedAffinity>
-6.89495373

$$$$

 OpenBabel09122222563D

 36 39  0  0  1  0  0  0  0  0999 V2000
    2.5320   -1.9430    9.7360 N   0  0  0  0  0  0  0  0  0  0  0  0
    2.5060   -2.4130    8.4410 C   0  0  0  0  0  0  0  0  0  0  0  0
    2.4020   -1.6840    7.4500 O   0  0  0  0  0  0  0  0  0  0  0  0
    2.7390   -3.8740    8.2110 C   0  0  0  0  0  0  0  0  0  0  0  0
    2.6880   -4.7050    9.2670 C   0  0  0  0  0  0  0  0  0  0  0  0
    2.3930   -4.1980   10.6170 C   0  0  0  0  0  0  0  0  0  0  0  0
    2.1230   -5.0330   11.7110 C   0  0  0  0  0  3  0  0  0  0  0  0
    1.9350   -4.4860   12.9760 C   0  0  0  0  0  3  0  0  0  0  0  0
    2.0170   -3.1150   13.1110 C   0  0  0  0  0  3  0  0  0  0  0  0
    2.2410   -2.2820   12.0750 N   0  0  0  0  0  0  0  0  0  0  0  0
    2.4030   -2.8180   10.8440 C   0  0  0  0  0  0  0  0  0  0  0  0
    3.1410   -4.2820    6.8150 C   0  0  1  0  0  3  0  0  0  0  0  0
    4.0560   -3.6030    6.1660 N   0  0  0  0  0  0  0  0  0  0  0  0
    4.5980   -3.9250    4.6940 S   0  0  0  0  0  0  0  0  0  0  0  0
    3.9050   -3.1140    3.7140 O   0  0  0  0  0  0  0  0  0  0  0  0
    6.0470   -3.9340    4.7200 O   0  0  0  0  0  0  0  0  0  0  0  0
    4.1180   -5.5860    4.3600 C   0  0  0  0  0  0  0  0  0  0  0  0
    4.7800   -6.3130    3.3670 C   0  0  0  0  0  3  0  0  0  0  0  0
    4.3850   -7.6230    3.1250 C   0  0  0  0  0  0  0  0  0  0  0  0
    3.3560   -8.1940    3.8740 C   0  0  0  0  0  3  0  0  0  0  0  0
    2.7120   -7.4530    4.8700 C   0  0  0  0  0  3  0  0  0  0  0  0
    3.1080   -6.1410    5.1390 C   0  0  0  0  0  0  0  0  0  0  0  0
    2.5930   -5.4480    6.2300 N   0  0  0  0  0  0  0  0  0  0  0  0
    4.4480   -2.7800    6.6150 H   0  0  0  0  0  0  0  0  0  0  0  0
    1.8430   -5.8840    6.7690 H   0  0  0  0  0  0  0  0  0  0  0  0
    5.0530   -8.4370    2.2580 O   0  0  0  0  0  0  0  0  0  0  0  0
    6.0980   -7.7790    1.5320 C   0  0  0  0  0  2  0  0  0  0  0  0
    5.6980   -7.5890    0.0770 C   0  0  0  0  0  2  0  0  0  0  0  0
    5.3660   -7.4320   -1.1290 N   0  0  0  0  0  1  0  0  0  0  0  0
    2.9980   -6.0500    9.1290 O   0  0  0  0  0  0  0  0  0  0  0  0
    3.2850   -6.4060    9.9910 H   0  0  0  0  0  0  0  0  0  0  0  0
    2.6020   -0.4970    9.9680 C   0  0  0  0  0  2  0  0  0  0  0  0
    4.0430    0.0270   10.1240 C   0  0  0  0  0  2  0  0  0  0  0  0
    4.9750    0.1270   12.4570 C   0  0  0  0  0  1  0  0  0  0  0  0
    4.2930    0.9310   11.3470 C   0  0  0  0  0  3  0  0  0  0  0  0
    5.1400    2.1530   10.9970 C   0  0  0  0  0  1  0  0  0  0  0  0
  1 32  1  0  0  0  0
  1 11  1  0  0  0  0
  2  1  1  0  0  0  0
  3  2  2  0  0  0  0
  4  2  1  0  0  0  0
  4  5  2  0  0  0  0
  5  6  1  0  0  0  0
  6 11  2  0  0  0  0
  6  7  1  0  0  0  0
  7  8  2  0  0  0  0
  8  9  1  0  0  0  0
 10  9  2  0  0  0  0
 11 10  1  0  0  0  0
 12  4  1  1  0  0  0
 13 24  1  0  0  0  0
 13 12  1  0  0  0  0
 14 16  2  0  0  0  0
 14 13  1  0  0  0  0
 15 14  2  0  0  0  0
 17 14  1  0  0  0  0
 17 22  1  0  0  0  0
 18 17  2  0  0  0  0
 19 18  1  0  0  0  0
 19 20  2  0  0  0  0
 20 21  1  0  0  0  0
 21 22  2  0  0  0  0
 22 23  1  0  0  0  0
 23 25  1  0  0  0  0
 23 12  1  0  0  0  0
 26 19  1  0  0  0  0
 27 26  1  0  0  0  0
 28 27  1  0  0  0  0
 29 28  1  0  0  0  0
 30  5  1  0  0  0  0
 30 31  1  0  0  0  0
 32 33  1  0  0  0  0
 33 35  1  0  0  0  0
 35 34  1  0  0  0  0
 36 35  1  0  0  0  0
M  END
>  <minimizedAffinity>
-6.84594774

$$$$

 OpenBabel09122222563D

 36 39  0  0  1  0  0  0  0  0999 V2000
    0.3910   -7.7260    8.0790 N   0  0  0  0  0  0  0  0  0  0  0  0
    0.9860   -7.4580    6.8650 C   0  0  0  0  0  0  0  0  0  0  0  0
    0.3560   -7.1830    5.8390 O   0  0  0  0  0  0  0  0  0  0  0  0
    2.4790   -7.3750    6.8090 C   0  0  0  0  0  0  0  0  0  0  0  0
    3.1860   -7.8290    7.8590 C   0  0  0  0  0  0  0  0  0  0  0  0
    2.5130   -8.4120    9.0310 C   0  0  0  0  0  0  0  0  0  0  0  0
    3.1950   -9.0860   10.0540 C   0  0  0  0  0  3  0  0  0  0  0  0
    2.5030   -9.5380   11.1730 C   0  0  0  0  0  3  0  0  0  0  0  0
    1.1430   -9.3080   11.2340 C   0  0  0  0  0  3  0  0  0  0  0  0
    0.4520   -8.6940   10.2530 N   0  0  0  0  0  0  0  0  0  0  0  0
    1.1260   -8.2750    9.1580 C   0  0  0  0  0  0  0  0  0  0  0  0
    3.0720   -6.6640    5.6170 C   0  0  1  0  0  3  0  0  0  0  0  0
    3.6550   -5.4980    5.7660 N   0  0  0  0  0  0  0  0  0  0  0  0
    4.3430   -4.6360    4.6050 S   0  0  0  0  0  0  0  0  0  0  0  0
    3.4200   -3.6370    4.1050 O   0  0  0  0  0  0  0  0  0  0  0  0
    5.6660   -4.2350    5.0410 O   0  0  0  0  0  0  0  0  0  0  0  0
    4.6010   -5.7530    3.2680 C   0  0  0  0  0  0  0  0  0  0  0  0
    5.5450   -5.4490    2.2840 C   0  0  0  0  0  3  0  0  0  0  0  0
    5.7340   -6.3500    1.2420 C   0  0  0  0  0  0  0  0  0  0  0  0
    4.9990   -7.5340    1.1970 C   0  0  0  0  0  3  0  0  0  0  0  0
    4.0660   -7.8250    2.1990 C   0  0  0  0  0  3  0  0  0  0  0  0
    3.8760   -6.9410    3.2630 C   0  0  0  0  0  0  0  0  0  0  0  0
    3.0770   -7.2880    4.3470 N   0  0  0  0  0  0  0  0  0  0  0  0
    3.6550   -5.0800    6.6920 H   0  0  0  0  0  0  0  0  0  0  0  0
    2.5500   -8.1610    4.2980 H   0  0  0  0  0  0  0  0  0  0  0  0
    6.7130   -6.1860    0.3060 O   0  0  0  0  0  0  0  0  0  0  0  0
    7.9500   -5.6980    0.8390 C   0  0  0  0  0  2  0  0  0  0  0  0
    8.6590   -4.8180   -0.1780 C   0  0  0  0  0  2  0  0  0  0  0  0
    9.2460   -4.0900   -1.0230 N   0  0  0  0  0  1  0  0  0  0  0  0
    4.5650   -7.6820    7.9050 O   0  0  0  0  0  0  0  0  0  0  0  0
    4.8600   -7.6960    8.8350 H   0  0  0  0  0  0  0  0  0  0  0  0
   -1.0540   -7.5230    8.2240 C   0  0  0  0  0  2  0  0  0  0  0  0
   -1.8950   -8.6730    7.6360 C   0  0  0  0  0  2  0  0  0  0  0  0
   -3.0690   -6.7190    6.5740 C   0  0  0  0  0  1  0  0  0  0  0  0
   -3.0310   -8.2460    6.6860 C   0  0  0  0  0  3  0  0  0  0  0  0
   -2.8830   -8.8630    5.2960 C   0  0  0  0  0  1  0  0  0  0  0  0
  1 32  1  0  0  0  0
  1 11  1  0  0  0  0
  2  1  1  0  0  0  0
  3  2  2  0  0  0  0
  4  2  1  0  0  0  0
  4  5  2  0  0  0  0
  5 30  1  0  0  0  0
  5  6  1  0  0  0  0
  6 11  2  0  0  0  0
  6  7  1  0  0  0  0
  7  8  2  0  0  0  0
  8  9  1  0  0  0  0
 10  9  2  0  0  0  0
 11 10  1  0  0  0  0
 12 13  1  0  0  0  0
 12  4  1  1  0  0  0
 13 24  1  0  0  0  0
 14 16  2  0  0  0  0
 14 13  1  0  0  0  0
 15 14  2  0  0  0  0
 17 14  1  0  0  0  0
 18 17  2  0  0  0  0
 19 18  1  0  0  0  0
 20 19  2  0  0  0  0
 20 21  1  0  0  0  0
 21 22  2  0  0  0  0
 22 17  1  0  0  0  0
 22 23  1  0  0  0  0
 23 12  1  0  0  0  0
 25 23  1  0  0  0  0
 26 27  1  0  0  0  0
 26 19  1  0  0  0  0
 28 27  1  0  0  0  0
 29 28  1  0  0  0  0
 30 31  1  0  0  0  0
 33 32  1  0  0  0  0
 34 35  1  0  0  0  0
 35 33  1  0  0  0  0
 36 35  1  0  0  0  0
M  END
>  <minimizedAffinity>
-6.78820467

$$$$

 OpenBabel09122222563D

 36 39  0  0  1  0  0  0  0  0999 V2000
    3.1200   -1.3940    9.7540 N   0  0  0  0  0  0  0  0  0  0  0  0
    3.1000   -2.1480    8.6010 C   0  0  0  0  0  0  0  0  0  0  0  0
    3.3910   -1.7020    7.4860 O   0  0  0  0  0  0  0  0  0  0  0  0
    2.8280   -3.6150    8.7160 C   0  0  0  0  0  0  0  0  0  0  0  0
    2.3490   -4.0890    9.8800 C   0  0  0  0  0  0  0  0  0  0  0  0
    2.0780   -3.1870   11.0110 C   0  0  0  0  0  0  0  0  0  0  0  0
    1.3890   -3.5850   12.1660 C   0  0  0  0  0  3  0  0  0  0  0  0
    1.2430   -2.7020   13.2310 C   0  0  0  0  0  3  0  0  0  0  0  0
    1.7870   -1.4400   13.1080 C   0  0  0  0  0  3  0  0  0  0  0  0
    2.4250   -1.0140   11.9990 N   0  0  0  0  0  0  0  0  0  0  0  0
    2.5460   -1.8690   10.9590 C   0  0  0  0  0  0  0  0  0  0  0  0
    3.2390   -4.4720    7.5440 C   0  0  1  0  0  3  0  0  0  0  0  0
    2.5400   -5.5370    7.2270 N   0  0  0  0  0  0  0  0  0  0  0  0
    2.8400   -6.5280    6.0050 S   0  0  0  0  0  0  0  0  0  0  0  0
    3.5930   -7.6780    6.4640 O   0  0  0  0  0  0  0  0  0  0  0  0
    1.6170   -6.7260    5.2530 O   0  0  0  0  0  0  0  0  0  0  0  0
    3.9230   -5.6490    4.9300 C   0  0  0  0  0  0  0  0  0  0  0  0
    4.0400   -6.0400    3.5940 C   0  0  0  0  0  3  0  0  0  0  0  0
    4.8980   -5.3270    2.7650 C   0  0  0  0  0  0  0  0  0  0  0  0
    5.6130   -4.2390    3.2640 C   0  0  0  0  0  3  0  0  0  0  0  0
    5.4750   -3.8580    4.6040 C   0  0  0  0  0  3  0  0  0  0  0  0
    4.6030   -4.5510    5.4470 C   0  0  0  0  0  0  0  0  0  0  0  0
    4.3310   -4.0880    6.7300 N   0  0  0  0  0  0  0  0  0  0  0  0
    1.7500   -5.7810    7.8160 H   0  0  0  0  0  0  0  0  0  0  0  0
    4.8610   -3.2870    7.0770 H   0  0  0  0  0  0  0  0  0  0  0  0
    4.9830   -5.5680    1.4250 O   0  0  0  0  0  0  0  0  0  0  0  0
    5.2000   -6.9450    1.0950 C   0  0  0  0  0  2  0  0  0  0  0  0
    6.6240   -7.3560    1.4320 C   0  0  0  0  0  2  0  0  0  0  0  0
    7.8060   -7.6980    1.7120 N   0  0  0  0  0  1  0  0  0  0  0  0
    2.1780   -5.4510   10.0770 O   0  0  0  0  0  0  0  0  0  0  0  0
    2.2050   -5.6460   11.0320 H   0  0  0  0  0  0  0  0  0  0  0  0
    3.6670   -0.0340    9.7080 C   0  0  0  0  0  2  0  0  0  0  0  0
    5.1640    0.0350   10.0710 C   0  0  0  0  0  2  0  0  0  0  0  0
    4.4240    2.0980   11.3030 C   0  0  0  0  0  1  0  0  0  0  0  0
    5.5330    1.0520   11.1690 C   0  0  0  0  0  3  0  0  0  0  0  0
    5.7770    0.3790   12.5180 C   0  0  0  0  0  1  0  0  0  0  0  0
  1 11  1  0  0  0  0
  2  4  1  0  0  0  0
  2  1  1  0  0  0  0
  3  2  2  0  0  0  0
  4  5  2  0  0  0  0
  5 30  1  0  0  0  0
  5  6  1  0  0  0  0
  6  7  1  0  0  0  0
  7  8  2  0  0  0  0
  9  8  1  0  0  0  0
 10  9  2  0  0  0  0
 11  6  2  0  0  0  0
 11 10  1  0  0  0  0
 12  4  1  6  0  0  0
 13 12  1  0  0  0  0
 13 24  1  0  0  0  0
 14 15  2  0  0  0  0
 14 13  1  0  0  0  0
 16 14  2  0  0  0  0
 17 22  1  0  0  0  0
 17 14  1  0  0  0  0
 18 17  2  0  0  0  0
 19 20  2  0  0  0  0
 19 18  1  0  0  0  0
 20 21  1  0  0  0  0
 21 22  2  0  0  0  0
 22 23  1  0  0  0  0
 23 25  1  0  0  0  0
 23 12  1  0  0  0  0
 26 19  1  0  0  0  0
 27 26  1  0  0  0  0
 27 28  1  0  0  0  0
 28 29  1  0  0  0  0
 30 31  1  0  0  0  0
 32  1  1  0  0  0  0
 32 33  1  0  0  0  0
 33 35  1  0  0  0  0
 35 34  1  0  0  0  0
 35 36  1  0  0  0  0
M  END
>  <minimizedAffinity>
-6.7746501

$$$$

 OpenBabel09122222563D

 36 39  0  0  1  0  0  0  0  0999 V2000
    0.2050   -8.2630    8.0500 N   0  0  0  0  0  0  0  0  0  0  0  0
    1.2230   -8.5020    7.1530 C   0  0  0  0  0  0  0  0  0  0  0  0
    1.2330   -9.4550    6.3670 O   0  0  0  0  0  0  0  0  0  0  0  0
    2.3210   -7.4920    7.0380 C   0  0  0  0  0  0  0  0  0  0  0  0
    2.4230   -6.5440    7.9870 C   0  0  0  0  0  0  0  0  0  0  0  0
    1.4890   -6.5080    9.1240 C   0  0  0  0  0  0  0  0  0  0  0  0
    1.6700   -5.6820   10.2430 C   0  0  0  0  0  3  0  0  0  0  0  0
    0.7030   -5.6380   11.2420 C   0  0  0  0  0  3  0  0  0  0  0  0
   -0.4180   -6.4310   11.0970 C   0  0  0  0  0  3  0  0  0  0  0  0
   -0.6060   -7.2620   10.0520 N   0  0  0  0  0  0  0  0  0  0  0  0
    0.3460   -7.3150    9.0940 C   0  0  0  0  0  0  0  0  0  0  0  0
    3.1580   -7.5440    5.7830 C   0  0  1  0  0  3  0  0  0  0  0  0
    3.3680   -8.6880    5.1750 N   0  0  0  0  0  0  0  0  0  0  0  0
    4.2140   -8.8970    3.8320 S   0  0  0  0  0  0  0  0  0  0  0  0
    5.5690   -9.3000    4.1490 O   0  0  0  0  0  0  0  0  0  0  0  0
    3.4300   -9.6870    2.9030 O   0  0  0  0  0  0  0  0  0  0  0  0
    4.3530   -7.3010    3.1000 C   0  0  0  0  0  0  0  0  0  0  0  0
    4.6490   -7.1860    1.7400 C   0  0  0  0  0  3  0  0  0  0  0  0
    4.7490   -5.9160    1.1850 C   0  0  0  0  0  0  0  0  0  0  0  0
    4.5430   -4.7870    1.9780 C   0  0  0  0  0  3  0  0  0  0  0  0
    4.2380   -4.9240    3.3360 C   0  0  0  0  0  3  0  0  0  0  0  0
    4.1150   -6.1930    3.9060 C   0  0  0  0  0  0  0  0  0  0  0  0
    3.6540   -6.3500    5.2090 N   0  0  0  0  0  0  0  0  0  0  0  0
    2.9860   -9.5290    5.5980 H   0  0  0  0  0  0  0  0  0  0  0  0
    3.5050   -5.5110    5.7730 H   0  0  0  0  0  0  0  0  0  0  0  0
    4.9200   -5.7170   -0.1530 O   0  0  0  0  0  0  0  0  0  0  0  0
    6.0150   -6.4510   -0.7150 C   0  0  0  0  0  2  0  0  0  0  0  0
    7.1890   -5.5260   -0.9930 C   0  0  0  0  0  2  0  0  0  0  0  0
    8.1630   -4.7600   -1.2240 N   0  0  0  0  0  1  0  0  0  0  0  0
    3.3540   -5.5230    7.8750 O   0  0  0  0  0  0  0  0  0  0  0  0
    3.0540   -4.7530    8.3940 H   0  0  0  0  0  0  0  0  0  0  0  0
   -1.0160   -9.0710    7.9750 C   0  0  0  0  0  2  0  0  0  0  0  0
   -1.9350   -8.6830    6.7990 C   0  0  0  0  0  2  0  0  0  0  0  0
   -1.3510   -6.8700    5.1580 C   0  0  0  0  0  1  0  0  0  0  0  0
   -2.0250   -7.1740    6.4980 C   0  0  0  0  0  3  0  0  0  0  0  0
   -3.4690   -6.6770    6.4750 C   0  0  0  0  0  1  0  0  0  0  0  0
  1 11  1  0  0  0  0
  2  1  1  0  0  0  0
  3  2  2  0  0  0  0
  4  2  1  0  0  0  0
  4  5  2  0  0  0  0
  5  6  1  0  0  0  0
  6  7  1  0  0  0  0
  7  8  2  0  0  0  0
  9  8  1  0  0  0  0
 10  9  2  0  0  0  0
 11  6  2  0  0  0  0
 11 10  1  0  0  0  0
 12  4  1  6  0  0  0
 13 24  1  0  0  0  0
 13 12  1  0  0  0  0
 14 15  2  0  0  0  0
 14 13  1  0  0  0  0
 16 14  2  0  0  0  0
 17 14  1  0  0  0  0
 17 22  1  0  0  0  0
 18 17  2  0  0  0  0
 19 18  1  0  0  0  0
 19 20  2  0  0  0  0
 20 21  1  0  0  0  0
 21 22  2  0  0  0  0
 22 23  1  0  0  0  0
 23 25  1  0  0  0  0
 23 12  1  0  0  0  0
 26 19  1  0  0  0  0
 27 26  1  0  0  0  0
 28 27  1  0  0  0  0
 29 28  1  0  0  0  0
 30  5  1  0  0  0  0
 30 31  1  0  0  0  0
 32  1  1  0  0  0  0
 33 32  1  0  0  0  0
 34 35  1  0  0  0  0
 35 33  1  0  0  0  0
 36 35  1  0  0  0  0
M  END
>  <minimizedAffinity>
-6.72608519

$$$$
