
 OpenBabel09132204463D

 36 39  0  0  1  0  0  0  0  0999 V2000
    6.2790   -5.3290    1.8310 N   0  0  0  0  0  0  0  0  0  0  0  0
    5.6310   -4.7870    2.9200 C   0  0  0  0  0  0  0  0  0  0  0  0
    4.5010   -5.1290    3.2840 O   0  0  0  0  0  0  0  0  0  0  0  0
    6.3780   -3.8190    3.7820 C   0  0  0  0  0  0  0  0  0  0  0  0
    7.5340   -3.3090    3.3210 C   0  0  0  0  0  0  0  0  0  0  0  0
    8.0470   -3.6770    1.9910 C   0  0  0  0  0  0  0  0  0  0  0  0
    9.1260   -3.0260    1.3740 C   0  0  0  0  0  3  0  0  0  0  0  0
    9.6100   -3.4820    0.1530 C   0  0  0  0  0  3  0  0  0  0  0  0
    8.9950   -4.5760   -0.4230 C   0  0  0  0  0  3  0  0  0  0  0  0
    7.9350   -5.2020    0.1260 N   0  0  0  0  0  0  0  0  0  0  0  0
    7.4560   -4.7430    1.3030 C   0  0  0  0  0  0  0  0  0  0  0  0
    5.8320   -3.5890    5.1700 C   0  0  1  0  0  3  0  0  0  0  0  0
    6.5890   -3.7960    6.2210 N   0  0  0  0  0  0  0  0  0  0  0  0
    6.1580   -3.5780    7.7480 S   0  0  0  0  0  0  0  0  0  0  0  0
    5.7310   -4.8320    8.3340 O   0  0  0  0  0  0  0  0  0  0  0  0
    7.1730   -2.7850    8.4130 O   0  0  0  0  0  0  0  0  0  0  0  0
    4.7190   -2.5640    7.6990 C   0  0  0  0  0  0  0  0  0  0  0  0
    4.3400   -1.8430    8.8340 C   0  0  0  0  0  3  0  0  0  0  0  0
    3.2030   -1.0470    8.7680 C   0  0  0  0  0  0  0  0  0  0  0  0
    2.4710   -0.9660    7.5840 C   0  0  0  0  0  3  0  0  0  0  0  0
    2.8730   -1.6870    6.4550 C   0  0  0  0  0  3  0  0  0  0  0  0
    4.0230   -2.4790    6.4970 C   0  0  0  0  0  0  0  0  0  0  0  0
    4.5270   -3.0700    5.3430 N   0  0  0  0  0  0  0  0  0  0  0  0
    7.5290   -4.1510    6.0690 H   0  0  0  0  0  0  0  0  0  0  0  0
    3.9790   -2.9970    4.4840 H   0  0  0  0  0  0  0  0  0  0  0  0
    2.8300   -0.2240    9.7910 O   0  0  0  0  0  0  0  0  0  0  0  0
    3.9270    0.4270   10.4420 C   0  0  0  0  0  2  0  0  0  0  0  0
    3.8900    0.1630   11.9390 C   0  0  0  0  0  2  0  0  0  0  0  0
    3.8610   -0.0550   13.1800 N   0  0  0  0  0  1  0  0  0  0  0  0
    8.3200   -2.4910    4.1190 O   0  0  0  0  0  0  0  0  0  0  0  0
    9.2440   -2.5300    3.8100 H   0  0  0  0  0  0  0  0  0  0  0  0
    5.6850   -6.4840    1.1500 C   0  0  0  0  0  2  0  0  0  0  0  0
    6.1590   -7.8370    1.7180 C   0  0  0  0  0  2  0  0  0  0  0  0
    4.0020   -9.1290    1.7610 C   0  0  0  0  0  1  0  0  0  0  0  0
    5.1440   -8.5710    2.6150 C   0  0  0  0  0  3  0  0  0  0  0  0
    5.7920   -9.7010    3.4140 C   0  0  0  0  0  1  0  0  0  0  0  0
  1  2  1  0  0  0  0
  2  3  2  0  0  0  0
  2  4  1  0  0  0  0
  5  4  2  0  0  0  0
  5 30  1  0  0  0  0
  6  5  1  0  0  0  0
  7  6  1  0  0  0  0
  8  7  2  0  0  0  0
  9 10  2  0  0  0  0
  9  8  1  0  0  0  0
 10 11  1  0  0  0  0
 11  1  1  0  0  0  0
 11  6  2  0  0  0  0
 12  4  1  6  0  0  0
 12 23  1  0  0  0  0
 12 13  1  0  0  0  0
 13 14  1  0  0  0  0
 14 15  2  0  0  0  0
 14 16  2  0  0  0  0
 17 14  1  0  0  0  0
 17 18  1  0  0  0  0
 19 18  2  0  0  0  0
 19 26  1  0  0  0  0
 20 19  1  0  0  0  0
 21 22  1  0  0  0  0
 21 20  2  0  0  0  0
 22 17  2  0  0  0  0
 23 22  1  0  0  0  0
 24 13  1  0  0  0  0
 25 23  1  0  0  0  0
 26 27  1  0  0  0  0
 27 28  1  0  0  0  0
 28 29  1  0  0  0  0
 31 30  1  0  0  0  0
 32 33  1  0  0  0  0
 32  1  1  0  0  0  0
 33 35  1  0  0  0  0
 34 35  1  0  0  0  0
 35 36  1  0  0  0  0
M  END
>  <minimizedAffinity>
-7.34254694

$$$$
