
 OpenBabel09132204463D

 36 39  0  0  1  0  0  0  0  0999 V2000
    5.2010   -5.9580    2.2740 N   0  0  0  0  0  0  0  0  0  0  0  0
    5.3330   -5.0610    3.3120 C   0  0  0  0  0  0  0  0  0  0  0  0
    6.1220   -4.1110    3.3000 O   0  0  0  0  0  0  0  0  0  0  0  0
    4.3880   -5.1670    4.4680 C   0  0  0  0  0  0  0  0  0  0  0  0
    3.6390   -6.2790    4.5830 C   0  0  0  0  0  0  0  0  0  0  0  0
    3.7570   -7.3770    3.6100 C   0  0  0  0  0  0  0  0  0  0  0  0
    3.1630   -8.6340    3.7910 C   0  0  0  0  0  3  0  0  0  0  0  0
    3.2460   -9.5960    2.7900 C   0  0  0  0  0  3  0  0  0  0  0  0
    3.9290   -9.2740    1.6340 C   0  0  0  0  0  3  0  0  0  0  0  0
    4.5390   -8.0880    1.4420 N   0  0  0  0  0  0  0  0  0  0  0  0
    4.4720   -7.1640    2.4260 C   0  0  0  0  0  0  0  0  0  0  0  0
    4.2580   -3.9490    5.3490 C   0  0  1  0  0  3  0  0  0  0  0  0
    3.1040   -3.6500    5.8970 N   0  0  0  0  0  0  0  0  0  0  0  0
    2.8180   -2.4070    6.8650 S   0  0  0  0  0  0  0  0  0  0  0  0
    2.2680   -1.2980    6.1110 O   0  0  0  0  0  0  0  0  0  0  0  0
    2.1250   -2.8830    8.0460 O   0  0  0  0  0  0  0  0  0  0  0  0
    4.3960   -1.8630    7.4260 C   0  0  0  0  0  0  0  0  0  0  0  0
    4.4910   -1.0940    8.5890 C   0  0  0  0  0  3  0  0  0  0  0  0
    5.7480   -0.6810    9.0130 C   0  0  0  0  0  0  0  0  0  0  0  0
    6.8850   -1.0440    8.2920 C   0  0  0  0  0  3  0  0  0  0  0  0
    6.7700   -1.8230    7.1350 C   0  0  0  0  0  3  0  0  0  0  0  0
    5.5160   -2.2620    6.7040 C   0  0  0  0  0  0  0  0  0  0  0  0
    5.3980   -3.1690    5.6560 N   0  0  0  0  0  0  0  0  0  0  0  0
    2.3050   -4.2370    5.6750 H   0  0  0  0  0  0  0  0  0  0  0  0
    6.2420   -3.4260    5.1420 H   0  0  0  0  0  0  0  0  0  0  0  0
    5.9400   -0.0280   10.1950 O   0  0  0  0  0  0  0  0  0  0  0  0
    4.8310    0.7840   10.5970 C   0  0  0  0  0  2  0  0  0  0  0  0
    4.3540    0.3870   11.9850 C   0  0  0  0  0  2  0  0  0  0  0  0
    3.9590    0.0580   13.1360 N   0  0  0  0  0  1  0  0  0  0  0  0
    2.6730   -6.3860    5.5730 O   0  0  0  0  0  0  0  0  0  0  0  0
    1.9960   -7.0310    5.2950 H   0  0  0  0  0  0  0  0  0  0  0  0
    5.9060   -5.6990    1.0150 C   0  0  0  0  0  2  0  0  0  0  0  0
    7.4220   -5.9680    1.0970 C   0  0  0  0  0  2  0  0  0  0  0  0
    7.4790   -4.9560   -1.2040 C   0  0  0  0  0  1  0  0  0  0  0  0
    8.2870   -5.2080    0.0730 C   0  0  0  0  0  3  0  0  0  0  0  0
    8.8050   -3.8820    0.6270 C   0  0  0  0  0  1  0  0  0  0  0  0
  1 11  1  0  0  0  0
  1  2  1  0  0  0  0
  2  4  1  0  0  0  0
  3  2  2  0  0  0  0
  4  5  2  0  0  0  0
  5 30  1  0  0  0  0
  6  7  1  0  0  0  0
  6  5  1  0  0  0  0
  8  7  2  0  0  0  0
  9  8  1  0  0  0  0
 10  9  2  0  0  0  0
 10 11  1  0  0  0  0
 11  6  2  0  0  0  0
 12  4  1  1  0  0  0
 12 23  1  0  0  0  0
 12 13  1  0  0  0  0
 13 14  1  0  0  0  0
 14 17  1  0  0  0  0
 14 16  2  0  0  0  0
 15 14  2  0  0  0  0
 17 18  1  0  0  0  0
 18 19  2  0  0  0  0
 19 26  1  0  0  0  0
 20 19  1  0  0  0  0
 21 20  2  0  0  0  0
 22 21  1  0  0  0  0
 22 17  2  0  0  0  0
 23 22  1  0  0  0  0
 24 13  1  0  0  0  0
 25 23  1  0  0  0  0
 26 27  1  0  0  0  0
 27 28  1  0  0  0  0
 28 29  1  0  0  0  0
 31 30  1  0  0  0  0
 32 33  1  0  0  0  0
 32  1  1  0  0  0  0
 34 35  1  0  0  0  0
 35 36  1  0  0  0  0
 35 33  1  0  0  0  0
M  END
>  <minimizedAffinity>
-7.12955904

$$$$
