
 OpenBabel09132204463D

 36 39  0  0  1  0  0  0  0  0999 V2000
    0.3910   -7.7260    8.0790 N   0  0  0  0  0  0  0  0  0  0  0  0
    0.9860   -7.4580    6.8650 C   0  0  0  0  0  0  0  0  0  0  0  0
    0.3560   -7.1830    5.8390 O   0  0  0  0  0  0  0  0  0  0  0  0
    2.4790   -7.3750    6.8090 C   0  0  0  0  0  0  0  0  0  0  0  0
    3.1860   -7.8290    7.8590 C   0  0  0  0  0  0  0  0  0  0  0  0
    2.5130   -8.4120    9.0310 C   0  0  0  0  0  0  0  0  0  0  0  0
    3.1950   -9.0860   10.0540 C   0  0  0  0  0  3  0  0  0  0  0  0
    2.5030   -9.5380   11.1730 C   0  0  0  0  0  3  0  0  0  0  0  0
    1.1430   -9.3080   11.2340 C   0  0  0  0  0  3  0  0  0  0  0  0
    0.4520   -8.6940   10.2530 N   0  0  0  0  0  0  0  0  0  0  0  0
    1.1260   -8.2750    9.1580 C   0  0  0  0  0  0  0  0  0  0  0  0
    3.0720   -6.6640    5.6170 C   0  0  1  0  0  3  0  0  0  0  0  0
    3.6550   -5.4980    5.7660 N   0  0  0  0  0  0  0  0  0  0  0  0
    4.3430   -4.6360    4.6050 S   0  0  0  0  0  0  0  0  0  0  0  0
    3.4200   -3.6370    4.1050 O   0  0  0  0  0  0  0  0  0  0  0  0
    5.6660   -4.2350    5.0410 O   0  0  0  0  0  0  0  0  0  0  0  0
    4.6010   -5.7530    3.2680 C   0  0  0  0  0  0  0  0  0  0  0  0
    5.5450   -5.4490    2.2840 C   0  0  0  0  0  3  0  0  0  0  0  0
    5.7340   -6.3500    1.2420 C   0  0  0  0  0  0  0  0  0  0  0  0
    4.9990   -7.5340    1.1970 C   0  0  0  0  0  3  0  0  0  0  0  0
    4.0660   -7.8250    2.1990 C   0  0  0  0  0  3  0  0  0  0  0  0
    3.8760   -6.9410    3.2630 C   0  0  0  0  0  0  0  0  0  0  0  0
    3.0770   -7.2880    4.3470 N   0  0  0  0  0  0  0  0  0  0  0  0
    3.6550   -5.0800    6.6920 H   0  0  0  0  0  0  0  0  0  0  0  0
    2.5500   -8.1610    4.2980 H   0  0  0  0  0  0  0  0  0  0  0  0
    6.7130   -6.1860    0.3060 O   0  0  0  0  0  0  0  0  0  0  0  0
    7.9500   -5.6980    0.8390 C   0  0  0  0  0  2  0  0  0  0  0  0
    8.6590   -4.8180   -0.1780 C   0  0  0  0  0  2  0  0  0  0  0  0
    9.2460   -4.0900   -1.0230 N   0  0  0  0  0  1  0  0  0  0  0  0
    4.5650   -7.6820    7.9050 O   0  0  0  0  0  0  0  0  0  0  0  0
    4.8600   -7.6960    8.8350 H   0  0  0  0  0  0  0  0  0  0  0  0
   -1.0540   -7.5230    8.2240 C   0  0  0  0  0  2  0  0  0  0  0  0
   -1.8950   -8.6730    7.6360 C   0  0  0  0  0  2  0  0  0  0  0  0
   -3.0690   -6.7190    6.5740 C   0  0  0  0  0  1  0  0  0  0  0  0
   -3.0310   -8.2460    6.6860 C   0  0  0  0  0  3  0  0  0  0  0  0
   -2.8830   -8.8630    5.2960 C   0  0  0  0  0  1  0  0  0  0  0  0
  1 32  1  0  0  0  0
  1 11  1  0  0  0  0
  2  1  1  0  0  0  0
  3  2  2  0  0  0  0
  4  2  1  0  0  0  0
  4  5  2  0  0  0  0
  5 30  1  0  0  0  0
  5  6  1  0  0  0  0
  6 11  2  0  0  0  0
  6  7  1  0  0  0  0
  7  8  2  0  0  0  0
  8  9  1  0  0  0  0
 10  9  2  0  0  0  0
 11 10  1  0  0  0  0
 12 13  1  0  0  0  0
 12  4  1  1  0  0  0
 13 24  1  0  0  0  0
 14 16  2  0  0  0  0
 14 13  1  0  0  0  0
 15 14  2  0  0  0  0
 17 14  1  0  0  0  0
 18 17  2  0  0  0  0
 19 18  1  0  0  0  0
 20 19  2  0  0  0  0
 20 21  1  0  0  0  0
 21 22  2  0  0  0  0
 22 17  1  0  0  0  0
 22 23  1  0  0  0  0
 23 12  1  0  0  0  0
 25 23  1  0  0  0  0
 26 27  1  0  0  0  0
 26 19  1  0  0  0  0
 28 27  1  0  0  0  0
 29 28  1  0  0  0  0
 30 31  1  0  0  0  0
 33 32  1  0  0  0  0
 34 35  1  0  0  0  0
 35 33  1  0  0  0  0
 36 35  1  0  0  0  0
M  END
>  <minimizedAffinity>
-6.78820467

$$$$
