
 OpenBabel09132204463D

 36 39  0  0  1  0  0  0  0  0999 V2000
    4.7490   -6.0460    2.6190 N   0  0  0  0  0  0  0  0  0  0  0  0
    4.7030   -5.5550    3.9060 C   0  0  0  0  0  0  0  0  0  0  0  0
    5.3600   -4.5830    4.2920 O   0  0  0  0  0  0  0  0  0  0  0  0
    3.7150   -6.1510    4.8590 C   0  0  0  0  0  0  0  0  0  0  0  0
    3.1130   -7.3060    4.5200 C   0  0  0  0  0  0  0  0  0  0  0  0
    3.4300   -7.9810    3.2510 C   0  0  0  0  0  0  0  0  0  0  0  0
    2.9980   -9.2780    2.9400 C   0  0  0  0  0  3  0  0  0  0  0  0
    3.2640   -9.8200    1.6870 C   0  0  0  0  0  3  0  0  0  0  0  0
    3.9630   -9.0500    0.7800 C   0  0  0  0  0  3  0  0  0  0  0  0
    4.4220   -7.8140    1.0590 N   0  0  0  0  0  0  0  0  0  0  0  0
    4.1780   -7.2990    2.2850 C   0  0  0  0  0  0  0  0  0  0  0  0
    3.3760   -5.3330    6.0810 C   0  0  1  0  0  3  0  0  0  0  0  0
    3.6150   -5.8060    7.2810 N   0  0  0  0  0  0  0  0  0  0  0  0
    3.3290   -5.0520    8.6640 S   0  0  0  0  0  0  0  0  0  0  0  0
    2.0560   -5.4730    9.2130 O   0  0  0  0  0  0  0  0  0  0  0  0
    4.5200   -5.1160    9.4870 O   0  0  0  0  0  0  0  0  0  0  0  0
    3.1280   -3.3520    8.2490 C   0  0  0  0  0  0  0  0  0  0  0  0
    3.2890   -2.3750    9.2340 C   0  0  0  0  0  3  0  0  0  0  0  0
    3.1290   -1.0400    8.8800 C   0  0  0  0  0  0  0  0  0  0  0  0
    2.8270   -0.6950    7.5630 C   0  0  0  0  0  3  0  0  0  0  0  0
    2.6800   -1.6890    6.5890 C   0  0  0  0  0  3  0  0  0  0  0  0
    2.8550   -3.0340    6.9220 C   0  0  0  0  0  0  0  0  0  0  0  0
    2.8740   -4.0180    5.9390 N   0  0  0  0  0  0  0  0  0  0  0  0
    3.9930   -6.7470    7.3550 H   0  0  0  0  0  0  0  0  0  0  0  0
    2.6540   -3.7460    4.9790 H   0  0  0  0  0  0  0  0  0  0  0  0
    3.3820   -0.0210    9.7510 O   0  0  0  0  0  0  0  0  0  0  0  0
    4.7020   -0.0450   10.3070 C   0  0  0  0  0  2  0  0  0  0  0  0
    4.6470    0.1200   11.8170 C   0  0  0  0  0  2  0  0  0  0  0  0
    4.6020    0.2570   13.0690 N   0  0  0  0  0  1  0  0  0  0  0  0
    2.1150   -7.8480    5.3160 O   0  0  0  0  0  0  0  0  0  0  0  0
    1.5450   -8.4230    4.7710 H   0  0  0  0  0  0  0  0  0  0  0  0
    5.4850   -5.2970    1.5960 C   0  0  0  0  0  2  0  0  0  0  0  0
    7.0030   -5.5650    1.6170 C   0  0  0  0  0  2  0  0  0  0  0  0
    6.6180   -5.6080   -0.8680 C   0  0  0  0  0  1  0  0  0  0  0  0
    7.6800   -5.6480    0.2350 C   0  0  0  0  0  3  0  0  0  0  0  0
    8.6920   -4.5240    0.0200 C   0  0  0  0  0  1  0  0  0  0  0  0
  1  2  1  0  0  0  0
  2  3  2  0  0  0  0
  2  4  1  0  0  0  0
  5  4  2  0  0  0  0
  5 30  1  0  0  0  0
  6  5  1  0  0  0  0
  7  6  1  0  0  0  0
  8  7  2  0  0  0  0
  9 10  2  0  0  0  0
  9  8  1  0  0  0  0
 10 11  1  0  0  0  0
 11  1  1  0  0  0  0
 11  6  2  0  0  0  0
 12  4  1  6  0  0  0
 12 13  1  0  0  0  0
 13 24  1  0  0  0  0
 13 14  1  0  0  0  0
 14 15  2  0  0  0  0
 14 16  2  0  0  0  0
 17 14  1  0  0  0  0
 17 18  1  0  0  0  0
 19 18  2  0  0  0  0
 19 26  1  0  0  0  0
 20 19  1  0  0  0  0
 21 22  1  0  0  0  0
 21 20  2  0  0  0  0
 22 17  2  0  0  0  0
 23 12  1  0  0  0  0
 23 22  1  0  0  0  0
 25 23  1  0  0  0  0
 26 27  1  0  0  0  0
 27 28  1  0  0  0  0
 28 29  1  0  0  0  0
 31 30  1  0  0  0  0
 32 33  1  0  0  0  0
 32  1  1  0  0  0  0
 34 35  1  0  0  0  0
 35 33  1  0  0  0  0
 36 35  1  0  0  0  0
M  END
>  <minimizedAffinity>
-7.09252119

$$$$
