
 OpenBabel09132204463D

 36 39  0  0  1  0  0  0  0  0999 V2000
    2.5320   -1.9430    9.7360 N   0  0  0  0  0  0  0  0  0  0  0  0
    2.5060   -2.4130    8.4410 C   0  0  0  0  0  0  0  0  0  0  0  0
    2.4020   -1.6840    7.4500 O   0  0  0  0  0  0  0  0  0  0  0  0
    2.7390   -3.8740    8.2110 C   0  0  0  0  0  0  0  0  0  0  0  0
    2.6880   -4.7050    9.2670 C   0  0  0  0  0  0  0  0  0  0  0  0
    2.3930   -4.1980   10.6170 C   0  0  0  0  0  0  0  0  0  0  0  0
    2.1230   -5.0330   11.7110 C   0  0  0  0  0  3  0  0  0  0  0  0
    1.9350   -4.4860   12.9760 C   0  0  0  0  0  3  0  0  0  0  0  0
    2.0170   -3.1150   13.1110 C   0  0  0  0  0  3  0  0  0  0  0  0
    2.2410   -2.2820   12.0750 N   0  0  0  0  0  0  0  0  0  0  0  0
    2.4030   -2.8180   10.8440 C   0  0  0  0  0  0  0  0  0  0  0  0
    3.1410   -4.2820    6.8150 C   0  0  1  0  0  3  0  0  0  0  0  0
    4.0560   -3.6030    6.1660 N   0  0  0  0  0  0  0  0  0  0  0  0
    4.5980   -3.9250    4.6940 S   0  0  0  0  0  0  0  0  0  0  0  0
    3.9050   -3.1140    3.7140 O   0  0  0  0  0  0  0  0  0  0  0  0
    6.0470   -3.9340    4.7200 O   0  0  0  0  0  0  0  0  0  0  0  0
    4.1180   -5.5860    4.3600 C   0  0  0  0  0  0  0  0  0  0  0  0
    4.7800   -6.3130    3.3670 C   0  0  0  0  0  3  0  0  0  0  0  0
    4.3850   -7.6230    3.1250 C   0  0  0  0  0  0  0  0  0  0  0  0
    3.3560   -8.1940    3.8740 C   0  0  0  0  0  3  0  0  0  0  0  0
    2.7120   -7.4530    4.8700 C   0  0  0  0  0  3  0  0  0  0  0  0
    3.1080   -6.1410    5.1390 C   0  0  0  0  0  0  0  0  0  0  0  0
    2.5930   -5.4480    6.2300 N   0  0  0  0  0  0  0  0  0  0  0  0
    4.4480   -2.7800    6.6150 H   0  0  0  0  0  0  0  0  0  0  0  0
    1.8430   -5.8840    6.7690 H   0  0  0  0  0  0  0  0  0  0  0  0
    5.0530   -8.4370    2.2580 O   0  0  0  0  0  0  0  0  0  0  0  0
    6.0980   -7.7790    1.5320 C   0  0  0  0  0  2  0  0  0  0  0  0
    5.6980   -7.5890    0.0770 C   0  0  0  0  0  2  0  0  0  0  0  0
    5.3660   -7.4320   -1.1290 N   0  0  0  0  0  1  0  0  0  0  0  0
    2.9980   -6.0500    9.1290 O   0  0  0  0  0  0  0  0  0  0  0  0
    3.2850   -6.4060    9.9910 H   0  0  0  0  0  0  0  0  0  0  0  0
    2.6020   -0.4970    9.9680 C   0  0  0  0  0  2  0  0  0  0  0  0
    4.0430    0.0270   10.1240 C   0  0  0  0  0  2  0  0  0  0  0  0
    4.9750    0.1270   12.4570 C   0  0  0  0  0  1  0  0  0  0  0  0
    4.2930    0.9310   11.3470 C   0  0  0  0  0  3  0  0  0  0  0  0
    5.1400    2.1530   10.9970 C   0  0  0  0  0  1  0  0  0  0  0  0
  1 32  1  0  0  0  0
  1 11  1  0  0  0  0
  2  1  1  0  0  0  0
  3  2  2  0  0  0  0
  4  2  1  0  0  0  0
  4  5  2  0  0  0  0
  5  6  1  0  0  0  0
  6 11  2  0  0  0  0
  6  7  1  0  0  0  0
  7  8  2  0  0  0  0
  8  9  1  0  0  0  0
 10  9  2  0  0  0  0
 11 10  1  0  0  0  0
 12  4  1  1  0  0  0
 13 24  1  0  0  0  0
 13 12  1  0  0  0  0
 14 16  2  0  0  0  0
 14 13  1  0  0  0  0
 15 14  2  0  0  0  0
 17 14  1  0  0  0  0
 17 22  1  0  0  0  0
 18 17  2  0  0  0  0
 19 18  1  0  0  0  0
 19 20  2  0  0  0  0
 20 21  1  0  0  0  0
 21 22  2  0  0  0  0
 22 23  1  0  0  0  0
 23 25  1  0  0  0  0
 23 12  1  0  0  0  0
 26 19  1  0  0  0  0
 27 26  1  0  0  0  0
 28 27  1  0  0  0  0
 29 28  1  0  0  0  0
 30  5  1  0  0  0  0
 30 31  1  0  0  0  0
 32 33  1  0  0  0  0
 33 35  1  0  0  0  0
 35 34  1  0  0  0  0
 36 35  1  0  0  0  0
M  END
>  <minimizedAffinity>
-6.84594774

$$$$
