
 OpenBabel09132204463D

 36 39  0  0  1  0  0  0  0  0999 V2000
    3.9820   -7.0090    3.2940 N   0  0  0  0  0  0  0  0  0  0  0  0
    3.4630   -6.0740    4.1640 C   0  0  0  0  0  0  0  0  0  0  0  0
    2.4070   -6.2290    4.7850 O   0  0  0  0  0  0  0  0  0  0  0  0
    4.2780   -4.8570    4.4680 C   0  0  0  0  0  0  0  0  0  0  0  0
    5.3400   -4.5850    3.6890 C   0  0  0  0  0  0  0  0  0  0  0  0
    5.6860   -5.4510    2.5500 C   0  0  0  0  0  0  0  0  0  0  0  0
    6.6450   -5.1100    1.5860 C   0  0  0  0  0  3  0  0  0  0  0  0
    6.9810   -6.0150    0.5850 C   0  0  0  0  0  3  0  0  0  0  0  0
    6.3410   -7.2370    0.5720 C   0  0  0  0  0  3  0  0  0  0  0  0
    5.3900   -7.5840    1.4630 N   0  0  0  0  0  0  0  0  0  0  0  0
    5.0540   -6.6930    2.4220 C   0  0  0  0  0  0  0  0  0  0  0  0
    3.9110   -4.0930    5.7170 C   0  0  1  0  0  3  0  0  0  0  0  0
    3.6030   -2.8200    5.6470 N   0  0  0  0  0  0  0  0  0  0  0  0
    3.1780   -1.8860    6.8760 S   0  0  0  0  0  0  0  0  0  0  0  0
    4.3240   -1.1480    7.3680 O   0  0  0  0  0  0  0  0  0  0  0  0
    1.9640   -1.1760    6.5260 O   0  0  0  0  0  0  0  0  0  0  0  0
    2.7280   -2.9840    8.1780 C   0  0  0  0  0  0  0  0  0  0  0  0
    1.9190   -2.5270    9.2210 C   0  0  0  0  0  3  0  0  0  0  0  0
    1.5750   -3.4150   10.2340 C   0  0  0  0  0  0  0  0  0  0  0  0
    2.0220   -4.7350   10.1920 C   0  0  0  0  0  3  0  0  0  0  0  0
    2.8220   -5.1760    9.1320 C   0  0  0  0  0  3  0  0  0  0  0  0
    3.1640   -4.3030    8.0970 C   0  0  0  0  0  0  0  0  0  0  0  0
    3.8180   -4.7640    6.9590 N   0  0  0  0  0  0  0  0  0  0  0  0
    3.6600   -2.3650    4.7400 H   0  0  0  0  0  0  0  0  0  0  0  0
    4.1350   -5.7350    6.9440 H   0  0  0  0  0  0  0  0  0  0  0  0
    0.6980   -3.0830   11.2250 O   0  0  0  0  0  0  0  0  0  0  0  0
    1.2830   -3.0570   12.5330 C   0  0  0  0  0  2  0  0  0  0  0  0
    1.8640   -1.6840   12.8290 C   0  0  0  0  0  2  0  0  0  0  0  0
    2.3460   -0.5450   13.0750 N   0  0  0  0  0  1  0  0  0  0  0  0
    6.1900   -3.5300    3.9870 O   0  0  0  0  0  0  0  0  0  0  0  0
    7.0660   -3.7000    3.5940 H   0  0  0  0  0  0  0  0  0  0  0  0
    3.3520   -8.3290    3.2070 C   0  0  0  0  0  2  0  0  0  0  0  0
    3.9530   -9.3590    4.1840 C   0  0  0  0  0  2  0  0  0  0  0  0
    3.3680   -9.0500    6.6100 C   0  0  0  0  0  1  0  0  0  0  0  0
    3.0230   -9.8110    5.3270 C   0  0  0  0  0  3  0  0  0  0  0  0
    1.5480   -9.6070    4.9850 C   0  0  0  0  0  1  0  0  0  0  0  0
  1  2  1  0  0  0  0
  2  4  1  0  0  0  0
  2  3  2  0  0  0  0
  5 30  1  0  0  0  0
  5  4  2  0  0  0  0
  6  5  1  0  0  0  0
  7  6  2  0  0  0  0
  8  7  1  0  0  0  0
  9  8  2  0  0  0  0
  9 10  1  0  0  0  0
 10 11  2  0  0  0  0
 11  6  1  0  0  0  0
 11  1  1  0  0  0  0
 12  4  1  6  0  0  0
 12 23  1  0  0  0  0
 13 12  1  0  0  0  0
 13 14  1  0  0  0  0
 14 15  2  0  0  0  0
 14 17  1  0  0  0  0
 16 14  2  0  0  0  0
 17 18  1  0  0  0  0
 18 19  2  0  0  0  0
 19 26  1  0  0  0  0
 20 19  1  0  0  0  0
 21 20  2  0  0  0  0
 22 17  2  0  0  0  0
 22 21  1  0  0  0  0
 23 22  1  0  0  0  0
 24 13  1  0  0  0  0
 25 23  1  0  0  0  0
 26 27  1  0  0  0  0
 27 28  1  0  0  0  0
 28 29  1  0  0  0  0
 31 30  1  0  0  0  0
 32  1  1  0  0  0  0
 32 33  1  0  0  0  0
 33 35  1  0  0  0  0
 35 34  1  0  0  0  0
 36 35  1  0  0  0  0
M  END
>  <minimizedAffinity>
-6.89495373

$$$$
