
 OpenBabel08172208283D

 43 47  0  0  1  0  0  0  0  0999 V2000
   26.7410    2.2470   16.6100 C   0  0  0  0  0  0  0  0  0  0  0  0
   25.5100    2.2270   16.6650 O   0  0  0  0  0  0  0  0  0  0  0  0
   27.4640    3.3760   16.1660 N   0  0  0  0  0  0  0  0  0  0  0  0
   28.8470    3.6480   16.6390 C   0  0  2  0  0  3  0  0  0  0  0  0
   28.7550    4.6990   17.7150 C   0  0  0  0  0  0  0  0  0  0  0  0
   28.3600    5.9680   17.5010 C   0  0  0  0  0  0  0  0  0  0  0  0
   28.3450    7.0690   18.5500 C   0  0  0  0  0  2  0  0  0  0  0  0
   29.1220    6.8350   19.8610 C   0  0  0  0  0  0  0  0  0  0  0  0
   28.7800    5.4500   20.4050 C   0  0  0  0  0  2  0  0  0  0  0  0
   29.1580    4.1240   19.2960 S   0  0  0  0  0  0  0  0  0  0  0  0
   30.5870    3.8840   19.3680 O   0  0  0  0  0  0  0  0  0  0  0  0
   28.2410    3.0460   19.6290 O   0  0  0  0  0  0  0  0  0  0  0  0
   30.6340    7.0220   19.6500 C   0  0  0  0  0  1  0  0  0  0  0  0
   28.6700    7.8880   20.8960 C   0  0  0  0  0  1  0  0  0  0  0  0
   27.9220    6.3990   16.2670 N   0  0  0  0  0  0  0  0  0  0  0  0
   27.1350    5.7220   15.3040 C   0  0  0  0  0  0  0  0  0  0  0  0
   26.8230    4.3450   15.3050 C   0  0  0  0  0  0  0  0  0  0  0  0
   25.9040    3.8720   14.3420 C   0  0  0  0  0  3  0  0  0  0  0  0
   25.3280    4.7140   13.3850 C   0  0  0  0  0  3  0  0  0  0  0  0
   25.6600    6.0600   13.3590 C   0  0  0  0  0  3  0  0  0  0  0  0
   26.5480    6.5480   14.3110 C   0  0  0  0  0  0  0  0  0  0  0  0
   27.9350    7.4050   16.0840 H   0  0  0  0  0  0  0  0  0  0  0  0
   28.1790    0.0470   14.6510 C   0  0  0  0  0  1  0  0  0  0  0  0
   28.1030    0.1650   16.1170 C   0  0  0  0  0  0  0  0  0  0  0  0
   27.4950    1.0500   16.9860 C   0  0  0  0  0  0  0  0  0  0  0  0
   27.7850    0.6710   18.2890 N   0  0  0  0  0  0  0  0  0  0  0  0
   28.5020   -0.4250   18.1520 C   0  0  0  0  0  0  0  0  0  0  0  0
   28.7460   -0.7860   16.8580 O   0  0  0  0  0  0  0  0  0  0  0  0
   29.0750   -1.2960   19.1970 C   0  0  0  0  0  1  0  0  0  0  0  0
   29.8540    3.8560   15.4970 C   0  0  0  0  0  0  0  0  0  0  0  0
   31.0810    4.5030   15.6690 C   0  0  0  0  0  0  0  0  0  0  0  0
   31.9950    4.6380   14.6240 C   0  0  0  0  0  3  0  0  0  0  0  0
   31.7190    4.1100   13.3650 C   0  0  0  0  0  0  0  0  0  0  0  0
   30.5270    3.4210   13.1760 C   0  0  0  0  0  3  0  0  0  0  0  0
   29.6130    3.2860   14.2310 C   0  0  0  0  0  3  0  0  0  0  0  0
   31.4320    5.0070   16.8580 F   0  0  0  0  0  0  0  0  0  0  0  0
   32.7000    4.3060   12.4360 O   0  0  0  0  0  0  0  0  0  0  0  0
   33.3020    5.5970   12.3270 C   0  0  0  0  0  2  0  0  0  0  0  0
   32.3940    6.5740   11.6160 C   0  0  0  0  0  0  0  0  0  0  0  0
   32.0980    7.7810   12.1280 C   0  0  0  0  0  2  0  0  0  0  0  0
   31.8590    6.1330   10.2820 C   0  0  0  0  0  1  0  0  0  0  0  0
   26.8600    7.8890   14.3330 O   0  0  0  0  0  0  0  0  0  0  0  0
   26.4140    8.3170   13.5830 H   0  0  0  0  0  0  0  0  0  0  0  0
  1  2  2  0  0  0  0
  1 25  1  0  0  0  0
  3  1  1  0  0  0  0
  3  4  1  0  0  0  0
  4 30  1  6  0  0  0
  4  5  1  0  0  0  0
  5 10  1  0  0  0  0
  6  5  2  0  0  0  0
  6  7  1  0  0  0  0
  7  8  1  0  0  0  0
  8  9  1  0  0  0  0
  8 14  1  0  0  0  0
 10 11  2  0  0  0  0
 10 12  2  0  0  0  0
 10  9  1  0  0  0  0
 13  8  1  0  0  0  0
 15  6  1  0  0  0  0
 16 17  1  0  0  0  0
 16 15  1  0  0  0  0
 17  3  1  0  0  0  0
 18 17  2  0  0  0  0
 19 18  1  0  0  0  0
 20 19  2  0  0  0  0
 20 21  1  0  0  0  0
 21 42  1  0  0  0  0
 21 16  2  0  0  0  0
 22 15  1  0  0  0  0
 23 24  1  0  0  0  0
 24 28  1  0  0  0  0
 24 25  2  0  0  0  0
 25 26  1  0  0  0  0
 27 26  2  0  0  0  0
 27 29  1  0  0  0  0
 28 27  1  0  0  0  0
 30 31  1  0  0  0  0
 31 36  1  0  0  0  0
 32 31  2  0  0  0  0
 33 32  1  0  0  0  0
 34 33  2  0  0  0  0
 34 35  1  0  0  0  0
 35 30  2  0  0  0  0
 37 33  1  0  0  0  0
 38 37  1  0  0  0  0
 39 40  2  0  0  0  0
 39 38  1  0  0  0  0
 41 39  1  0  0  0  0
 43 42  1  0  0  0  0
M  END
>  <minimizedAffinity>
-1.54570913

$$$$
