
 OpenBabel08172208283D

 43 47  0  0  1  0  0  0  0  0999 V2000
   26.3200    4.4030   10.6340 C   0  0  0  0  0  0  0  0  0  0  0  0
   25.5400    5.3520   10.5280 O   0  0  0  0  0  0  0  0  0  0  0  0
   27.7190    4.5530   10.5320 N   0  0  0  0  0  0  0  0  0  0  0  0
   28.6530    3.6240   11.2220 C   0  0  2  0  0  3  0  0  0  0  0  0
   29.1280    4.3130   12.4740 C   0  0  0  0  0  0  0  0  0  0  0  0
   29.8980    5.4180   12.4840 C   0  0  0  0  0  0  0  0  0  0  0  0
   30.4640    6.0790   13.7310 C   0  0  0  0  0  2  0  0  0  0  0  0
   30.4430    5.2830   15.0510 C   0  0  0  0  0  0  0  0  0  0  0  0
   29.0570    4.6720   15.2440 C   0  0  0  0  0  2  0  0  0  0  0  0
   28.5560    3.5880   13.9370 S   0  0  0  0  0  0  0  0  0  0  0  0
   29.2280    2.3190   14.1370 O   0  0  0  0  0  0  0  0  0  0  0  0
   27.1020    3.6250   13.9170 O   0  0  0  0  0  0  0  0  0  0  0  0
   31.5560    4.2220   15.0770 C   0  0  0  0  0  1  0  0  0  0  0  0
   30.7100    6.2560   16.2190 C   0  0  0  0  0  1  0  0  0  0  0  0
   30.2570    6.0690   11.3230 N   0  0  0  0  0  0  0  0  0  0  0  0
   29.5000    6.2960   10.1480 C   0  0  0  0  0  0  0  0  0  0  0  0
   28.2700    5.6850    9.8210 C   0  0  0  0  0  0  0  0  0  0  0  0
   27.5870    6.1430    8.6710 C   0  0  0  0  0  3  0  0  0  0  0  0
   28.1040    7.1480    7.8490 C   0  0  0  0  0  3  0  0  0  0  0  0
   29.3280    7.7250    8.1480 C   0  0  0  0  0  3  0  0  0  0  0  0
   30.0060    7.3020    9.2850 C   0  0  0  0  0  0  0  0  0  0  0  0
   31.0670    6.6900   11.3590 H   0  0  0  0  0  0  0  0  0  0  0  0
   23.9240    3.4520   12.6610 C   0  0  0  0  0  1  0  0  0  0  0  0
   24.7530    2.7120   11.6930 C   0  0  0  0  0  0  0  0  0  0  0  0
   25.7840    3.0560   10.8410 C   0  0  0  0  0  0  0  0  0  0  0  0
   26.1810    1.9270   10.1370 N   0  0  0  0  0  0  0  0  0  0  0  0
   25.4190    0.9670   10.6170 C   0  0  0  0  0  0  0  0  0  0  0  0
   24.5170    1.3730   11.5590 O   0  0  0  0  0  0  0  0  0  0  0  0
   25.4060   -0.4680   10.2700 C   0  0  0  0  0  1  0  0  0  0  0  0
   29.7010    3.0030   10.2850 C   0  0  0  0  0  0  0  0  0  0  0  0
   30.9260    2.5030   10.7350 C   0  0  0  0  0  0  0  0  0  0  0  0
   31.8400    1.9040    9.8680 C   0  0  0  0  0  3  0  0  0  0  0  0
   31.5500    1.7660    8.5130 C   0  0  0  0  0  0  0  0  0  0  0  0
   30.3190    2.2110    8.0450 C   0  0  0  0  0  3  0  0  0  0  0  0
   29.4030    2.8110    8.9220 C   0  0  0  0  0  3  0  0  0  0  0  0
   31.2630    2.5690   12.0290 F   0  0  0  0  0  0  0  0  0  0  0  0
   32.5260    1.1560    7.7790 O   0  0  0  0  0  0  0  0  0  0  0  0
   32.9080   -0.1790    8.1090 C   0  0  0  0  0  2  0  0  0  0  0  0
   31.8450   -1.1760    7.7060 C   0  0  0  0  0  0  0  0  0  0  0  0
   31.2120   -1.9500    8.6030 C   0  0  0  0  0  2  0  0  0  0  0  0
   31.5100   -1.2340    6.2420 C   0  0  0  0  0  1  0  0  0  0  0  0
   31.2030    7.8910    9.6280 O   0  0  0  0  0  0  0  0  0  0  0  0
   31.4370    8.5310    8.9350 H   0  0  0  0  0  0  0  0  0  0  0  0
  1 25  1  0  0  0  0
  2  1  2  0  0  0  0
  3  1  1  0  0  0  0
  3  4  1  0  0  0  0
  4 30  1  6  0  0  0
  4  5  1  0  0  0  0
  5  6  2  0  0  0  0
  5 10  1  0  0  0  0
  6  7  1  0  0  0  0
  7  8  1  0  0  0  0
  8 13  1  0  0  0  0
  8  9  1  0  0  0  0
  8 14  1  0  0  0  0
 10 11  2  0  0  0  0
 10  9  1  0  0  0  0
 12 10  2  0  0  0  0
 15 22  1  0  0  0  0
 15  6  1  0  0  0  0
 16 15  1  0  0  0  0
 17 16  1  0  0  0  0
 17  3  1  0  0  0  0
 18 17  2  0  0  0  0
 19 20  2  0  0  0  0
 19 18  1  0  0  0  0
 20 21  1  0  0  0  0
 21 42  1  0  0  0  0
 21 16  2  0  0  0  0
 24 23  1  0  0  0  0
 25 24  2  0  0  0  0
 26 27  2  0  0  0  0
 26 25  1  0  0  0  0
 27 28  1  0  0  0  0
 28 24  1  0  0  0  0
 29 27  1  0  0  0  0
 30 31  1  0  0  0  0
 31 36  1  0  0  0  0
 32 31  2  0  0  0  0
 33 32  1  0  0  0  0
 34 33  2  0  0  0  0
 34 35  1  0  0  0  0
 35 30  2  0  0  0  0
 37 38  1  0  0  0  0
 37 33  1  0  0  0  0
 39 38  1  0  0  0  0
 39 40  2  0  0  0  0
 41 39  1  0  0  0  0
 43 42  1  0  0  0  0
M  END
>  <minimizedAffinity>
-1.27981818

$$$$
