
 OpenBabel08172208283D

 43 47  0  0  1  0  0  0  0  0999 V2000
   29.7100    1.9900   14.7850 C   0  0  0  0  0  0  0  0  0  0  0  0
   30.4250    1.6670   15.7360 O   0  0  0  0  0  0  0  0  0  0  0  0
   29.1150    3.2660   14.6800 N   0  0  0  0  0  0  0  0  0  0  0  0
   28.7900    3.8660   13.3590 C   0  0  2  0  0  3  0  0  0  0  0  0
   29.8830    4.8510   13.0330 C   0  0  0  0  0  0  0  0  0  0  0  0
   30.1080    5.9860   13.7210 C   0  0  0  0  0  0  0  0  0  0  0  0
   31.1430    7.0390   13.3570 C   0  0  0  0  0  2  0  0  0  0  0  0
   31.7660    6.9910   11.9480 C   0  0  0  0  0  0  0  0  0  0  0  0
   32.1980    5.5590   11.6410 C   0  0  0  0  0  2  0  0  0  0  0  0
   30.8820    4.3780   11.7030 S   0  0  0  0  0  0  0  0  0  0  0  0
   30.1270    4.4960   10.4700 O   0  0  0  0  0  0  0  0  0  0  0  0
   31.4990    3.1040   12.0360 O   0  0  0  0  0  0  0  0  0  0  0  0
   30.7940    7.5460   10.8930 C   0  0  0  0  0  1  0  0  0  0  0  0
   33.0220    7.8900   11.9330 C   0  0  0  0  0  1  0  0  0  0  0  0
   29.3920    6.3080   14.8540 N   0  0  0  0  0  0  0  0  0  0  0  0
   28.9280    5.4680   15.8950 C   0  0  0  0  0  0  0  0  0  0  0  0
   28.8980    4.0560   15.8720 C   0  0  0  0  0  0  0  0  0  0  0  0
   28.5350    3.3810   17.0590 C   0  0  0  0  0  3  0  0  0  0  0  0
   28.1840    4.0650   18.2270 C   0  0  0  0  0  3  0  0  0  0  0  0
   28.1790    5.4510   18.2420 C   0  0  0  0  0  3  0  0  0  0  0  0
   28.5510    6.1330   17.0890 C   0  0  0  0  0  0  0  0  0  0  0  0
   29.3820    7.2880   15.1460 H   0  0  0  0  0  0  0  0  0  0  0  0
   31.8000   -0.0530   13.3000 C   0  0  0  0  0  1  0  0  0  0  0  0
   30.3490    0.1540   13.1560 C   0  0  0  0  0  0  0  0  0  0  0  0
   29.4330    1.0110   13.7330 C   0  0  0  0  0  0  0  0  0  0  0  0
   28.1740    0.7380   13.2150 N   0  0  0  0  0  0  0  0  0  0  0  0
   28.3900   -0.2200   12.3380 C   0  0  0  0  0  0  0  0  0  0  0  0
   29.6890   -0.6340   12.2560 O   0  0  0  0  0  0  0  0  0  0  0  0
   27.4260   -0.9000   11.4510 C   0  0  0  0  0  1  0  0  0  0  0  0
   27.3290    4.3260   13.2400 C   0  0  0  0  0  0  0  0  0  0  0  0
   26.9100    5.3110   12.3410 C   0  0  0  0  0  0  0  0  0  0  0  0
   25.5700    5.6780   12.2230 C   0  0  0  0  0  3  0  0  0  0  0  0
   24.5910    5.0530   12.9920 C   0  0  0  0  0  0  0  0  0  0  0  0
   24.9720    4.0370   13.8610 C   0  0  0  0  0  3  0  0  0  0  0  0
   26.3210    3.6720   13.9740 C   0  0  0  0  0  3  0  0  0  0  0  0
   27.7880    5.9330   11.5440 F   0  0  0  0  0  0  0  0  0  0  0  0
   23.3200    5.5010   12.7730 O   0  0  0  0  0  0  0  0  0  0  0  0
   22.7600    5.3830   11.4650 C   0  0  0  0  0  2  0  0  0  0  0  0
   22.4300    3.9450   11.1310 C   0  0  0  0  0  0  0  0  0  0  0  0
   23.0100    3.2950   10.1090 C   0  0  0  0  0  2  0  0  0  0  0  0
   21.4330    3.2680   12.0300 C   0  0  0  0  0  1  0  0  0  0  0  0
   28.5960    7.5100   17.0920 O   0  0  0  0  0  0  0  0  0  0  0  0
   28.2830    7.8220   17.9580 H   0  0  0  0  0  0  0  0  0  0  0  0
  1  2  2  0  0  0  0
  3  1  1  0  0  0  0
  3 17  1  0  0  0  0
  4 30  1  1  0  0  0
  4  3  1  0  0  0  0
  5  4  1  0  0  0  0
  5  6  2  0  0  0  0
  6 15  1  0  0  0  0
  7  6  1  0  0  0  0
  8  7  1  0  0  0  0
  9 10  1  0  0  0  0
  9  8  1  0  0  0  0
 10 12  2  0  0  0  0
 10  5  1  0  0  0  0
 11 10  2  0  0  0  0
 13  8  1  0  0  0  0
 14  8  1  0  0  0  0
 15 22  1  0  0  0  0
 15 16  1  0  0  0  0
 16 21  1  0  0  0  0
 17 16  2  0  0  0  0
 17 18  1  0  0  0  0
 18 19  2  0  0  0  0
 19 20  1  0  0  0  0
 21 42  1  0  0  0  0
 21 20  2  0  0  0  0
 24 23  1  0  0  0  0
 24 25  2  0  0  0  0
 25  1  1  0  0  0  0
 26 25  1  0  0  0  0
 27 26  2  0  0  0  0
 28 27  1  0  0  0  0
 28 24  1  0  0  0  0
 29 27  1  0  0  0  0
 30 35  1  0  0  0  0
 31 30  2  0  0  0  0
 32 31  1  0  0  0  0
 32 33  2  0  0  0  0
 33 34  1  0  0  0  0
 34 35  2  0  0  0  0
 36 31  1  0  0  0  0
 37 33  1  0  0  0  0
 38 37  1  0  0  0  0
 39 38  1  0  0  0  0
 39 41  1  0  0  0  0
 40 39  2  0  0  0  0
 42 43  1  0  0  0  0
M  END
>  <minimizedAffinity>
-1.7501266

$$$$
