
 OpenBabel08172208283D

 43 47  0  0  1  0  0  0  0  0999 V2000
   28.8780    6.3880   16.7030 C   0  0  0  0  0  0  0  0  0  0  0  0
   28.5050    7.4920   17.1060 O   0  0  0  0  0  0  0  0  0  0  0  0
   28.5950    5.9180   15.4020 N   0  0  0  0  0  0  0  0  0  0  0  0
   29.4850    4.9450   14.7160 C   0  0  2  0  0  3  0  0  0  0  0  0
   30.3450    5.7240   13.7560 C   0  0  0  0  0  0  0  0  0  0  0  0
   29.8750    6.3680   12.6700 C   0  0  0  0  0  0  0  0  0  0  0  0
   30.7320    7.0830   11.6370 C   0  0  0  0  0  2  0  0  0  0  0  0
   32.2470    6.8020   11.6280 C   0  0  0  0  0  0  0  0  0  0  0  0
   32.7820    6.8960   13.0550 C   0  0  0  0  0  2  0  0  0  0  0  0
   32.0190    5.7710   14.1880 S   0  0  0  0  0  0  0  0  0  0  0  0
   32.6070    4.4620   13.9720 O   0  0  0  0  0  0  0  0  0  0  0  0
   32.1260    6.3870   15.5010 O   0  0  0  0  0  0  0  0  0  0  0  0
   32.5550    5.4420   10.9780 C   0  0  0  0  0  1  0  0  0  0  0  0
   32.9450    7.8850   10.7760 C   0  0  0  0  0  1  0  0  0  0  0  0
   28.5280    6.4350   12.3870 N   0  0  0  0  0  0  0  0  0  0  0  0
   27.4290    6.5850   13.2680 C   0  0  0  0  0  0  0  0  0  0  0  0
   27.4680    6.4590   14.6740 C   0  0  0  0  0  0  0  0  0  0  0  0
   26.3020    6.7850   15.4020 C   0  0  0  0  0  3  0  0  0  0  0  0
   25.1220    7.1950   14.7730 C   0  0  0  0  0  3  0  0  0  0  0  0
   25.0700    7.2860   13.3910 C   0  0  0  0  0  3  0  0  0  0  0  0
   26.2130    6.9870   12.6580 C   0  0  0  0  0  0  0  0  0  0  0  0
   28.2550    6.6530   11.4270 H   0  0  0  0  0  0  0  0  0  0  0  0
   31.2870    7.1620   18.7880 C   0  0  0  0  0  1  0  0  0  0  0  0
   30.6090    5.8890   18.4880 C   0  0  0  0  0  0  0  0  0  0  0  0
   29.6150    5.5060   17.6090 C   0  0  0  0  0  0  0  0  0  0  0  0
   29.3590    4.1530   17.7820 N   0  0  0  0  0  0  0  0  0  0  0  0
   30.2210    3.7790   18.7040 C   0  0  0  0  0  0  0  0  0  0  0  0
   31.0060    4.7860   19.1900 O   0  0  0  0  0  0  0  0  0  0  0  0
   30.4400    2.4380   19.2810 C   0  0  0  0  0  1  0  0  0  0  0  0
   28.7470    3.7020   14.1970 C   0  0  0  0  0  0  0  0  0  0  0  0
   29.2230    2.9170   13.1420 C   0  0  0  0  0  0  0  0  0  0  0  0
   28.5540    1.7680   12.7200 C   0  0  0  0  0  3  0  0  0  0  0  0
   27.3870    1.3500   13.3550 C   0  0  0  0  0  0  0  0  0  0  0  0
   26.9150    2.0850   14.4370 C   0  0  0  0  0  3  0  0  0  0  0  0
   27.5930    3.2390   14.8580 C   0  0  0  0  0  3  0  0  0  0  0  0
   30.3560    3.2350   12.5050 F   0  0  0  0  0  0  0  0  0  0  0  0
   26.8380    0.2080   12.8480 O   0  0  0  0  0  0  0  0  0  0  0  0
   25.4540   -0.0580   13.0810 C   0  0  0  0  0  2  0  0  0  0  0  0
   24.5840    0.5490   12.0040 C   0  0  0  0  0  0  0  0  0  0  0  0
   24.8910    0.4600   10.6990 C   0  0  0  0  0  2  0  0  0  0  0  0
   23.3320    1.2370   12.4720 C   0  0  0  0  0  1  0  0  0  0  0  0
   26.2000    7.1130   11.2870 O   0  0  0  0  0  0  0  0  0  0  0  0
   25.3010    7.3610   11.0130 H   0  0  0  0  0  0  0  0  0  0  0  0
  1  2  2  0  0  0  0
  1 25  1  0  0  0  0
  3  1  1  0  0  0  0
  4 30  1  6  0  0  0
  4  3  1  0  0  0  0
  5 10  1  0  0  0  0
  5  4  1  0  0  0  0
  6  5  2  0  0  0  0
  7  6  1  0  0  0  0
  8  7  1  0  0  0  0
  8  9  1  0  0  0  0
  9 10  1  0  0  0  0
 10 12  2  0  0  0  0
 11 10  2  0  0  0  0
 13  8  1  0  0  0  0
 14  8  1  0  0  0  0
 15  6  1  0  0  0  0
 15 16  1  0  0  0  0
 16 17  1  0  0  0  0
 17  3  1  0  0  0  0
 17 18  2  0  0  0  0
 19 18  1  0  0  0  0
 20 19  2  0  0  0  0
 21 16  2  0  0  0  0
 21 20  1  0  0  0  0
 22 15  1  0  0  0  0
 24 23  1  0  0  0  0
 24 28  1  0  0  0  0
 25 26  1  0  0  0  0
 25 24  2  0  0  0  0
 26 27  2  0  0  0  0
 27 28  1  0  0  0  0
 27 29  1  0  0  0  0
 30 35  1  0  0  0  0
 31 30  2  0  0  0  0
 32 31  1  0  0  0  0
 32 33  2  0  0  0  0
 33 34  1  0  0  0  0
 34 35  2  0  0  0  0
 36 31  1  0  0  0  0
 37 38  1  0  0  0  0
 37 33  1  0  0  0  0
 39 41  1  0  0  0  0
 39 38  1  0  0  0  0
 40 39  2  0  0  0  0
 42 21  1  0  0  0  0
 43 42  1  0  0  0  0
M  END
>  <minimizedAffinity>
-2.06076264

$$$$
