
 OpenBabel09092210413D

 26 29  0  0  0  0  0  0  0  0999 V2000
    5.4890   -3.1120    1.3320 C   0  0  0  0  0  0  0  0  0  0  0  0
    5.3120   -3.0150   -0.0900 C   0  0  0  0  0  3  0  0  0  0  0  0
    5.4350   -4.2260   -0.7420 C   0  0  0  0  0  0  0  0  0  0  0  0
    5.7350   -5.4840    0.3770 S   0  0  0  0  0  0  0  0  0  0  0  0
    5.6190   -4.4310    1.7350 C   0  0  0  0  0  0  0  0  0  0  0  0
    5.3830   -4.5010   -2.1840 C   0  0  0  0  0  0  0  0  0  0  0  0
    4.6080   -3.7180   -3.0520 C   0  0  0  0  0  3  0  0  0  0  0  0
    4.5800   -3.9850   -4.4240 C   0  0  0  0  0  3  0  0  0  0  0  0
    5.3290   -5.0390   -4.9450 C   0  0  0  0  0  3  0  0  0  0  0  0
    6.1060   -5.8230   -4.0970 C   0  0  0  0  0  3  0  0  0  0  0  0
    6.1350   -5.5550   -2.7250 C   0  0  0  0  0  3  0  0  0  0  0  0
    4.4960   -0.9410    2.4540 N   0  0  0  0  0  0  0  0  0  0  0  0
    5.0470    0.0570    3.2250 N   0  0  0  0  0  0  0  0  0  0  0  0
    6.2810   -0.2880    3.5600 N   0  0  0  0  0  0  0  0  0  0  0  0
    6.5590   -1.4680    2.9480 C   0  0  0  0  0  3  0  0  0  0  0  0
    5.4820   -1.8900    2.1980 C   0  0  0  0  0  0  0  0  0  0  0  0
   -1.2230   -0.9400    1.8730 C   0  0  0  0  0  1  0  0  0  0  0  0
    0.2690   -0.9550    2.0110 C   0  0  0  0  0  0  0  0  0  0  0  0
    0.9050   -1.9820    2.7160 C   0  0  0  0  0  3  0  0  0  0  0  0
    2.2970   -1.9950    2.8620 C   0  0  0  0  0  3  0  0  0  0  0  0
    3.0770   -0.9800    2.3000 C   0  0  0  0  0  0  0  0  0  0  0  0
    2.4350    0.0660    1.6180 C   0  0  0  0  0  3  0  0  0  0  0  0
    1.0440    0.0780    1.4770 C   0  0  0  0  0  3  0  0  0  0  0  0
    5.6090   -4.9640    3.1320 C   0  0  0  0  0  0  0  0  0  0  0  0
    6.7020   -5.4280    3.5830 O   0  0  0  0  0  0  0  0  0  0  0  0
    4.5050   -4.9370    3.7560 O   0  0  0  0  0  1  0  0  0  0  0  0
  1  5  2  0  0  0  0
  1 16  1  0  0  0  0
  2  1  1  0  0  0  0
  3  2  2  0  0  0  0
  3  4  1  0  0  0  0
  4  5  1  0  0  0  0
  5 24  1  0  0  0  0
  6  3  1  0  0  0  0
  7  6  2  0  0  0  0
  8  7  1  0  0  0  0
  9  8  2  0  0  0  0
  9 10  1  0  0  0  0
 10 11  2  0  0  0  0
 11  6  1  0  0  0  0
 12 13  1  0  0  0  0
 13 14  2  0  0  0  0
 15 14  1  0  0  0  0
 16 12  1  0  0  0  0
 16 15  2  0  0  0  0
 17 18  1  0  0  0  0
 18 19  1  0  0  0  0
 19 20  2  0  0  0  0
 21 12  1  0  0  0  0
 21 20  1  0  0  0  0
 22 21  2  0  0  0  0
 23 22  1  0  0  0  0
 23 18  2  0  0  0  0
 24 25  2  0  0  0  0
 24 26  1  0  0  0  0
M  END
>  <minimizedAffinity>
-3.12276506

$$$$
