
 OpenBabel09092210413D

 26 29  0  0  0  0  0  0  0  0999 V2000
    4.4040   -1.8290    2.5810 C   0  0  0  0  0  0  0  0  0  0  0  0
    4.1410   -2.7110    1.4780 C   0  0  0  0  0  3  0  0  0  0  0  0
    5.2610   -2.9940    0.7220 C   0  0  0  0  0  0  0  0  0  0  0  0
    6.6370   -2.2140    1.3700 S   0  0  0  0  0  0  0  0  0  0  0  0
    5.7590   -1.5660    2.7030 C   0  0  0  0  0  0  0  0  0  0  0  0
    5.3600   -3.7950   -0.5050 C   0  0  0  0  0  0  0  0  0  0  0  0
    4.6620   -3.4430   -1.6690 C   0  0  0  0  0  3  0  0  0  0  0  0
    4.7790   -4.2100   -2.8320 C   0  0  0  0  0  3  0  0  0  0  0  0
    5.5970   -5.3380   -2.8460 C   0  0  0  0  0  3  0  0  0  0  0  0
    6.2990   -5.6990   -1.6990 C   0  0  0  0  0  3  0  0  0  0  0  0
    6.1830   -4.9310   -0.5360 C   0  0  0  0  0  3  0  0  0  0  0  0
    2.8410   -0.0510    3.7440 N   0  0  0  0  0  0  0  0  0  0  0  0
    1.8770   -0.1400    4.7220 N   0  0  0  0  0  0  0  0  0  0  0  0
    1.6270   -1.4180    4.9650 N   0  0  0  0  0  0  0  0  0  0  0  0
    2.4780   -2.1560    4.2050 C   0  0  0  0  0  3  0  0  0  0  0  0
    3.2970   -1.3350    3.4600 C   0  0  0  0  0  0  0  0  0  0  0  0
    3.4130    5.0110    1.0800 C   0  0  0  0  0  1  0  0  0  0  0  0
    3.2780    3.6840    1.7630 C   0  0  0  0  0  0  0  0  0  0  0  0
    2.6430    2.6170    1.1190 C   0  0  0  0  0  3  0  0  0  0  0  0
    2.5000    1.3790    1.7550 C   0  0  0  0  0  3  0  0  0  0  0  0
    2.9950    1.1870    3.0490 C   0  0  0  0  0  0  0  0  0  0  0  0
    3.6060    2.2680    3.7060 C   0  0  0  0  0  3  0  0  0  0  0  0
    3.7430    3.5050    3.0680 C   0  0  0  0  0  3  0  0  0  0  0  0
    6.4570   -0.8750    3.8300 C   0  0  0  0  0  0  0  0  0  0  0  0
    6.7280   -1.5720    4.8580 O   0  0  0  0  0  1  0  0  0  0  0  0
    6.7070    0.3600    3.6890 O   0  0  0  0  0  0  0  0  0  0  0  0
  1  5  2  0  0  0  0
  1 16  1  0  0  0  0
  2  1  1  0  0  0  0
  3  4  1  0  0  0  0
  3  2  2  0  0  0  0
  4  5  1  0  0  0  0
  5 24  1  0  0  0  0
  6  3  1  0  0  0  0
  7  6  2  0  0  0  0
  8  7  1  0  0  0  0
  9  8  2  0  0  0  0
  9 10  1  0  0  0  0
 10 11  2  0  0  0  0
 11  6  1  0  0  0  0
 12 13  1  0  0  0  0
 13 14  2  0  0  0  0
 15 14  1  0  0  0  0
 16 12  1  0  0  0  0
 16 15  2  0  0  0  0
 17 18  1  0  0  0  0
 18 23  1  0  0  0  0
 19 20  1  0  0  0  0
 19 18  2  0  0  0  0
 20 21  2  0  0  0  0
 21 22  1  0  0  0  0
 21 12  1  0  0  0  0
 23 22  2  0  0  0  0
 24 25  1  0  0  0  0
 26 24  2  0  0  0  0
M  END
>  <minimizedAffinity>
-3.32696438

$$$$
