
 OpenBabel09092210413D

 26 29  0  0  0  0  0  0  0  0999 V2000
    4.7140   -2.7010    1.4830 C   0  0  0  0  0  0  0  0  0  0  0  0
    5.2710   -2.8040    0.1630 C   0  0  0  0  0  3  0  0  0  0  0  0
    4.8900   -3.9500   -0.5060 C   0  0  0  0  0  0  0  0  0  0  0  0
    3.8310   -4.8840    0.4570 S   0  0  0  0  0  0  0  0  0  0  0  0
    3.8140   -3.7250    1.7310 C   0  0  0  0  0  0  0  0  0  0  0  0
    5.3100   -4.4210   -1.8320 C   0  0  0  0  0  0  0  0  0  0  0  0
    4.8900   -3.7760   -3.0060 C   0  0  0  0  0  3  0  0  0  0  0  0
    5.3100   -4.2300   -4.2600 C   0  0  0  0  0  3  0  0  0  0  0  0
    6.1560   -5.3330   -4.3560 C   0  0  0  0  0  3  0  0  0  0  0  0
    6.5850   -5.9810   -3.2000 C   0  0  0  0  0  3  0  0  0  0  0  0
    6.1660   -5.5260   -1.9460 C   0  0  0  0  0  3  0  0  0  0  0  0
    4.3580   -0.4830    2.8650 N   0  0  0  0  0  0  0  0  0  0  0  0
    5.2100    0.3320    3.5740 N   0  0  0  0  0  0  0  0  0  0  0  0
    6.3910   -0.2590    3.6700 N   0  0  0  0  0  0  0  0  0  0  0  0
    6.3320   -1.4170    2.9630 C   0  0  0  0  0  3  0  0  0  0  0  0
    5.0850   -1.5730    2.3950 C   0  0  0  0  0  0  0  0  0  0  0  0
   -1.3120    0.3280    3.3510 C   0  0  0  0  0  1  0  0  0  0  0  0
    0.1680    0.1360    3.2220 C   0  0  0  0  0  0  0  0  0  0  0  0
    0.7850    0.2110    1.9690 C   0  0  0  0  0  3  0  0  0  0  0  0
    2.1650    0.0190    1.8370 C   0  0  0  0  0  3  0  0  0  0  0  0
    2.9530   -0.2490    2.9620 C   0  0  0  0  0  0  0  0  0  0  0  0
    2.3270   -0.3530    4.2150 C   0  0  0  0  0  3  0  0  0  0  0  0
    0.9470   -0.1640    4.3420 C   0  0  0  0  0  3  0  0  0  0  0  0
    2.8760   -3.8560    2.8870 C   0  0  0  0  0  0  0  0  0  0  0  0
    1.6640   -3.5290    2.6900 O   0  0  0  0  0  0  0  0  0  0  0  0
    3.3620   -4.2610    3.9870 O   0  0  0  0  0  1  0  0  0  0  0  0
  1  5  2  0  0  0  0
  1 16  1  0  0  0  0
  2  1  1  0  0  0  0
  3  2  2  0  0  0  0
  3  4  1  0  0  0  0
  4  5  1  0  0  0  0
  5 24  1  0  0  0  0
  6  3  1  0  0  0  0
  7  6  2  0  0  0  0
  8  7  1  0  0  0  0
  9  8  2  0  0  0  0
  9 10  1  0  0  0  0
 10 11  2  0  0  0  0
 11  6  1  0  0  0  0
 12 21  1  0  0  0  0
 12 13  1  0  0  0  0
 13 14  2  0  0  0  0
 15 14  1  0  0  0  0
 16 12  1  0  0  0  0
 16 15  2  0  0  0  0
 18 17  1  0  0  0  0
 18 23  1  0  0  0  0
 19 18  2  0  0  0  0
 20 19  1  0  0  0  0
 20 21  2  0  0  0  0
 21 22  1  0  0  0  0
 22 23  2  0  0  0  0
 24 26  1  0  0  0  0
 25 24  2  0  0  0  0
M  END
>  <minimizedAffinity>
-3.20628977

$$$$
