
 OpenBabel09082221243D

 26 29  0  0  0  0  0  0  0  0999 V2000
    1.9320    0.9720    1.5320 C   0  0  0  0  0  0  0  0  0  0  0  0
    3.2360    0.4540    1.8380 C   0  0  0  0  0  3  0  0  0  0  0  0
    3.3660   -0.8940    1.5720 C   0  0  0  0  0  0  0  0  0  0  0  0
    1.9150   -1.5230    0.9220 S   0  0  0  0  0  0  0  0  0  0  0  0
    1.1400    0.0160    0.9170 C   0  0  0  0  0  0  0  0  0  0  0  0
    4.5200   -1.7700    1.8180 C   0  0  0  0  0  0  0  0  0  0  0  0
    5.5680   -1.8780    0.8930 C   0  0  0  0  0  3  0  0  0  0  0  0
    6.6650   -2.7070    1.1490 C   0  0  0  0  0  3  0  0  0  0  0  0
    6.7270   -3.4370    2.3340 C   0  0  0  0  0  3  0  0  0  0  0  0
    5.6950   -3.3370    3.2640 C   0  0  0  0  0  3  0  0  0  0  0  0
    4.6000   -2.5080    3.0090 C   0  0  0  0  0  3  0  0  0  0  0  0
    1.8590    3.5860    1.1800 N   0  0  0  0  0  0  0  0  0  0  0  0
    1.4020    4.6280    1.9520 N   0  0  0  0  0  0  0  0  0  0  0  0
    0.7400    4.1380    2.9900 N   0  0  0  0  0  0  0  0  0  0  0  0
    0.8300    2.7840    2.9340 C   0  0  0  0  0  3  0  0  0  0  0  0
    1.5710    2.3930    1.8390 C   0  0  0  0  0  0  0  0  0  0  0  0
    3.5590    4.7810   -4.1800 C   0  0  0  0  0  1  0  0  0  0  0  0
    3.1110    4.4510   -2.7890 C   0  0  0  0  0  0  0  0  0  0  0  0
    1.7480    4.3660   -2.4850 C   0  0  0  0  0  3  0  0  0  0  0  0
    1.3210    4.0730   -1.1850 C   0  0  0  0  0  3  0  0  0  0  0  0
    2.2540    3.8560   -0.1660 C   0  0  0  0  0  0  0  0  0  0  0  0
    3.6220    3.9700   -0.4660 C   0  0  0  0  0  3  0  0  0  0  0  0
    4.0440    4.2670   -1.7660 C   0  0  0  0  0  3  0  0  0  0  0  0
   -0.1880    0.2140    0.2610 C   0  0  0  0  0  0  0  0  0  0  0  0
   -1.2190   -0.1010    0.9330 O   0  0  0  0  0  1  0  0  0  0  0  0
   -0.1880    0.6590   -0.9270 O   0  0  0  0  0  0  0  0  0  0  0  0
  1  2  1  0  0  0  0
  1 16  1  0  0  0  0
  3  6  1  0  0  0  0
  3  2  2  0  0  0  0
  4  3  1  0  0  0  0
  5  4  1  0  0  0  0
  5  1  2  0  0  0  0
  6 11  1  0  0  0  0
  7  8  1  0  0  0  0
  7  6  2  0  0  0  0
  8  9  2  0  0  0  0
  9 10  1  0  0  0  0
 11 10  2  0  0  0  0
 12 16  1  0  0  0  0
 12 13  1  0  0  0  0
 13 14  2  0  0  0  0
 15 14  1  0  0  0  0
 16 15  2  0  0  0  0
 17 18  1  0  0  0  0
 18 19  2  0  0  0  0
 18 23  1  0  0  0  0
 19 20  1  0  0  0  0
 20 21  2  0  0  0  0
 21 12  1  0  0  0  0
 22 21  1  0  0  0  0
 23 22  2  0  0  0  0
 24  5  1  0  0  0  0
 24 25  1  0  0  0  0
 26 24  2  0  0  0  0
M  END
>  <minimizedAffinity>
-3.51188111

$$$$

 OpenBabel09082221243D

 26 29  0  0  0  0  0  0  0  0999 V2000
    4.4040   -1.8290    2.5810 C   0  0  0  0  0  0  0  0  0  0  0  0
    4.1410   -2.7110    1.4780 C   0  0  0  0  0  3  0  0  0  0  0  0
    5.2610   -2.9940    0.7220 C   0  0  0  0  0  0  0  0  0  0  0  0
    6.6370   -2.2140    1.3700 S   0  0  0  0  0  0  0  0  0  0  0  0
    5.7590   -1.5660    2.7030 C   0  0  0  0  0  0  0  0  0  0  0  0
    5.3600   -3.7950   -0.5050 C   0  0  0  0  0  0  0  0  0  0  0  0
    4.6620   -3.4430   -1.6690 C   0  0  0  0  0  3  0  0  0  0  0  0
    4.7790   -4.2100   -2.8320 C   0  0  0  0  0  3  0  0  0  0  0  0
    5.5970   -5.3380   -2.8460 C   0  0  0  0  0  3  0  0  0  0  0  0
    6.2990   -5.6990   -1.6990 C   0  0  0  0  0  3  0  0  0  0  0  0
    6.1830   -4.9310   -0.5360 C   0  0  0  0  0  3  0  0  0  0  0  0
    2.8410   -0.0510    3.7440 N   0  0  0  0  0  0  0  0  0  0  0  0
    1.8770   -0.1400    4.7220 N   0  0  0  0  0  0  0  0  0  0  0  0
    1.6270   -1.4180    4.9650 N   0  0  0  0  0  0  0  0  0  0  0  0
    2.4780   -2.1560    4.2050 C   0  0  0  0  0  3  0  0  0  0  0  0
    3.2970   -1.3350    3.4600 C   0  0  0  0  0  0  0  0  0  0  0  0
    3.4130    5.0110    1.0800 C   0  0  0  0  0  1  0  0  0  0  0  0
    3.2780    3.6840    1.7630 C   0  0  0  0  0  0  0  0  0  0  0  0
    2.6430    2.6170    1.1190 C   0  0  0  0  0  3  0  0  0  0  0  0
    2.5000    1.3790    1.7550 C   0  0  0  0  0  3  0  0  0  0  0  0
    2.9950    1.1870    3.0490 C   0  0  0  0  0  0  0  0  0  0  0  0
    3.6060    2.2680    3.7060 C   0  0  0  0  0  3  0  0  0  0  0  0
    3.7430    3.5050    3.0680 C   0  0  0  0  0  3  0  0  0  0  0  0
    6.4570   -0.8750    3.8300 C   0  0  0  0  0  0  0  0  0  0  0  0
    6.7280   -1.5720    4.8580 O   0  0  0  0  0  1  0  0  0  0  0  0
    6.7070    0.3600    3.6890 O   0  0  0  0  0  0  0  0  0  0  0  0
  1  5  2  0  0  0  0
  1 16  1  0  0  0  0
  2  1  1  0  0  0  0
  3  4  1  0  0  0  0
  3  2  2  0  0  0  0
  4  5  1  0  0  0  0
  5 24  1  0  0  0  0
  6  3  1  0  0  0  0
  7  6  2  0  0  0  0
  8  7  1  0  0  0  0
  9  8  2  0  0  0  0
  9 10  1  0  0  0  0
 10 11  2  0  0  0  0
 11  6  1  0  0  0  0
 12 13  1  0  0  0  0
 13 14  2  0  0  0  0
 15 14  1  0  0  0  0
 16 12  1  0  0  0  0
 16 15  2  0  0  0  0
 17 18  1  0  0  0  0
 18 23  1  0  0  0  0
 19 20  1  0  0  0  0
 19 18  2  0  0  0  0
 20 21  2  0  0  0  0
 21 22  1  0  0  0  0
 21 12  1  0  0  0  0
 23 22  2  0  0  0  0
 24 25  1  0  0  0  0
 26 24  2  0  0  0  0
M  END
>  <minimizedAffinity>
-3.32696438

$$$$

 OpenBabel09082221243D

 26 29  0  0  0  0  0  0  0  0999 V2000
    4.7140   -2.7010    1.4830 C   0  0  0  0  0  0  0  0  0  0  0  0
    5.2710   -2.8040    0.1630 C   0  0  0  0  0  3  0  0  0  0  0  0
    4.8900   -3.9500   -0.5060 C   0  0  0  0  0  0  0  0  0  0  0  0
    3.8310   -4.8840    0.4570 S   0  0  0  0  0  0  0  0  0  0  0  0
    3.8140   -3.7250    1.7310 C   0  0  0  0  0  0  0  0  0  0  0  0
    5.3100   -4.4210   -1.8320 C   0  0  0  0  0  0  0  0  0  0  0  0
    4.8900   -3.7760   -3.0060 C   0  0  0  0  0  3  0  0  0  0  0  0
    5.3100   -4.2300   -4.2600 C   0  0  0  0  0  3  0  0  0  0  0  0
    6.1560   -5.3330   -4.3560 C   0  0  0  0  0  3  0  0  0  0  0  0
    6.5850   -5.9810   -3.2000 C   0  0  0  0  0  3  0  0  0  0  0  0
    6.1660   -5.5260   -1.9460 C   0  0  0  0  0  3  0  0  0  0  0  0
    4.3580   -0.4830    2.8650 N   0  0  0  0  0  0  0  0  0  0  0  0
    5.2100    0.3320    3.5740 N   0  0  0  0  0  0  0  0  0  0  0  0
    6.3910   -0.2590    3.6700 N   0  0  0  0  0  0  0  0  0  0  0  0
    6.3320   -1.4170    2.9630 C   0  0  0  0  0  3  0  0  0  0  0  0
    5.0850   -1.5730    2.3950 C   0  0  0  0  0  0  0  0  0  0  0  0
   -1.3120    0.3280    3.3510 C   0  0  0  0  0  1  0  0  0  0  0  0
    0.1680    0.1360    3.2220 C   0  0  0  0  0  0  0  0  0  0  0  0
    0.7850    0.2110    1.9690 C   0  0  0  0  0  3  0  0  0  0  0  0
    2.1650    0.0190    1.8370 C   0  0  0  0  0  3  0  0  0  0  0  0
    2.9530   -0.2490    2.9620 C   0  0  0  0  0  0  0  0  0  0  0  0
    2.3270   -0.3530    4.2150 C   0  0  0  0  0  3  0  0  0  0  0  0
    0.9470   -0.1640    4.3420 C   0  0  0  0  0  3  0  0  0  0  0  0
    2.8760   -3.8560    2.8870 C   0  0  0  0  0  0  0  0  0  0  0  0
    1.6640   -3.5290    2.6900 O   0  0  0  0  0  0  0  0  0  0  0  0
    3.3620   -4.2610    3.9870 O   0  0  0  0  0  1  0  0  0  0  0  0
  1  5  2  0  0  0  0
  1 16  1  0  0  0  0
  2  1  1  0  0  0  0
  3  2  2  0  0  0  0
  3  4  1  0  0  0  0
  4  5  1  0  0  0  0
  5 24  1  0  0  0  0
  6  3  1  0  0  0  0
  7  6  2  0  0  0  0
  8  7  1  0  0  0  0
  9  8  2  0  0  0  0
  9 10  1  0  0  0  0
 10 11  2  0  0  0  0
 11  6  1  0  0  0  0
 12 21  1  0  0  0  0
 12 13  1  0  0  0  0
 13 14  2  0  0  0  0
 15 14  1  0  0  0  0
 16 12  1  0  0  0  0
 16 15  2  0  0  0  0
 18 17  1  0  0  0  0
 18 23  1  0  0  0  0
 19 18  2  0  0  0  0
 20 19  1  0  0  0  0
 20 21  2  0  0  0  0
 21 22  1  0  0  0  0
 22 23  2  0  0  0  0
 24 26  1  0  0  0  0
 25 24  2  0  0  0  0
M  END
>  <minimizedAffinity>
-3.20628977

$$$$

 OpenBabel09082221243D

 26 29  0  0  0  0  0  0  0  0999 V2000
    3.6150   -3.5150   -1.3040 C   0  0  0  0  0  0  0  0  0  0  0  0
    2.4170   -3.4110   -0.5190 C   0  0  0  0  0  3  0  0  0  0  0  0
    1.3320   -2.9430   -1.2330 C   0  0  0  0  0  0  0  0  0  0  0  0
    1.7610   -2.6610   -2.8630 S   0  0  0  0  0  0  0  0  0  0  0  0
    3.3680   -3.2390   -2.6390 C   0  0  0  0  0  0  0  0  0  0  0  0
   -0.0250   -2.6490   -0.7530 C   0  0  0  0  0  0  0  0  0  0  0  0
   -0.6480   -3.4460    0.2180 C   0  0  0  0  0  3  0  0  0  0  0  0
   -1.9350   -3.1440    0.6730 C   0  0  0  0  0  3  0  0  0  0  0  0
   -2.6140   -2.0380    0.1650 C   0  0  0  0  0  3  0  0  0  0  0  0
   -2.0060   -1.2340   -0.7960 C   0  0  0  0  0  3  0  0  0  0  0  0
   -0.7190   -1.5360   -1.2510 C   0  0  0  0  0  3  0  0  0  0  0  0
    5.6790   -5.0780   -0.7930 N   0  0  0  0  0  0  0  0  0  0  0  0
    6.7280   -4.9930    0.0930 N   0  0  0  0  0  0  0  0  0  0  0  0
    6.7220   -3.7930    0.6540 N   0  0  0  0  0  0  0  0  0  0  0  0
    5.6320   -3.1270    0.1920 C   0  0  0  0  0  3  0  0  0  0  0  0
    4.9160   -3.9180   -0.6820 C   0  0  0  0  0  0  0  0  0  0  0  0
    5.8020   -9.1030   -4.8960 C   0  0  0  0  0  1  0  0  0  0  0  0
    5.7770   -8.0660   -3.8130 C   0  0  0  0  0  0  0  0  0  0  0  0
    4.7920   -8.1030   -2.8210 C   0  0  0  0  0  3  0  0  0  0  0  0
    4.7520   -7.1310   -1.8150 C   0  0  0  0  0  3  0  0  0  0  0  0
    5.7030   -6.1060   -1.7840 C   0  0  0  0  0  0  0  0  0  0  0  0
    6.6740   -6.0540   -2.7980 C   0  0  0  0  0  3  0  0  0  0  0  0
    6.7080   -7.0250   -3.8040 C   0  0  0  0  0  3  0  0  0  0  0  0
    4.2900   -3.4400   -3.7990 C   0  0  0  0  0  0  0  0  0  0  0  0
    5.3010   -2.6740   -3.8750 O   0  0  0  0  0  1  0  0  0  0  0  0
    3.9840   -4.3440   -4.6340 O   0  0  0  0  0  0  0  0  0  0  0  0
  1 16  1  0  0  0  0
  1  2  1  0  0  0  0
  3  6  1  0  0  0  0
  3  2  2  0  0  0  0
  4  5  1  0  0  0  0
  4  3  1  0  0  0  0
  5  1  2  0  0  0  0
  6  7  1  0  0  0  0
  7  8  2  0  0  0  0
  9  8  1  0  0  0  0
 10  9  2  0  0  0  0
 11 10  1  0  0  0  0
 11  6  2  0  0  0  0
 12 16  1  0  0  0  0
 12 13  1  0  0  0  0
 13 14  2  0  0  0  0
 15 14  1  0  0  0  0
 16 15  2  0  0  0  0
 17 18  1  0  0  0  0
 18 23  2  0  0  0  0
 18 19  1  0  0  0  0
 19 20  2  0  0  0  0
 20 21  1  0  0  0  0
 21 12  1  0  0  0  0
 22 21  2  0  0  0  0
 23 22  1  0  0  0  0
 24  5  1  0  0  0  0
 25 24  1  0  0  0  0
 26 24  2  0  0  0  0
M  END
>  <minimizedAffinity>
-3.20491457

$$$$

 OpenBabel09082221243D

 26 29  0  0  0  0  0  0  0  0999 V2000
    5.4890   -3.1120    1.3320 C   0  0  0  0  0  0  0  0  0  0  0  0
    5.3120   -3.0150   -0.0900 C   0  0  0  0  0  3  0  0  0  0  0  0
    5.4350   -4.2260   -0.7420 C   0  0  0  0  0  0  0  0  0  0  0  0
    5.7350   -5.4840    0.3770 S   0  0  0  0  0  0  0  0  0  0  0  0
    5.6190   -4.4310    1.7350 C   0  0  0  0  0  0  0  0  0  0  0  0
    5.3830   -4.5010   -2.1840 C   0  0  0  0  0  0  0  0  0  0  0  0
    4.6080   -3.7180   -3.0520 C   0  0  0  0  0  3  0  0  0  0  0  0
    4.5800   -3.9850   -4.4240 C   0  0  0  0  0  3  0  0  0  0  0  0
    5.3290   -5.0390   -4.9450 C   0  0  0  0  0  3  0  0  0  0  0  0
    6.1060   -5.8230   -4.0970 C   0  0  0  0  0  3  0  0  0  0  0  0
    6.1350   -5.5550   -2.7250 C   0  0  0  0  0  3  0  0  0  0  0  0
    4.4960   -0.9410    2.4540 N   0  0  0  0  0  0  0  0  0  0  0  0
    5.0470    0.0570    3.2250 N   0  0  0  0  0  0  0  0  0  0  0  0
    6.2810   -0.2880    3.5600 N   0  0  0  0  0  0  0  0  0  0  0  0
    6.5590   -1.4680    2.9480 C   0  0  0  0  0  3  0  0  0  0  0  0
    5.4820   -1.8900    2.1980 C   0  0  0  0  0  0  0  0  0  0  0  0
   -1.2230   -0.9400    1.8730 C   0  0  0  0  0  1  0  0  0  0  0  0
    0.2690   -0.9550    2.0110 C   0  0  0  0  0  0  0  0  0  0  0  0
    0.9050   -1.9820    2.7160 C   0  0  0  0  0  3  0  0  0  0  0  0
    2.2970   -1.9950    2.8620 C   0  0  0  0  0  3  0  0  0  0  0  0
    3.0770   -0.9800    2.3000 C   0  0  0  0  0  0  0  0  0  0  0  0
    2.4350    0.0660    1.6180 C   0  0  0  0  0  3  0  0  0  0  0  0
    1.0440    0.0780    1.4770 C   0  0  0  0  0  3  0  0  0  0  0  0
    5.6090   -4.9640    3.1320 C   0  0  0  0  0  0  0  0  0  0  0  0
    6.7020   -5.4280    3.5830 O   0  0  0  0  0  0  0  0  0  0  0  0
    4.5050   -4.9370    3.7560 O   0  0  0  0  0  1  0  0  0  0  0  0
  1  5  2  0  0  0  0
  1 16  1  0  0  0  0
  2  1  1  0  0  0  0
  3  2  2  0  0  0  0
  3  4  1  0  0  0  0
  4  5  1  0  0  0  0
  5 24  1  0  0  0  0
  6  3  1  0  0  0  0
  7  6  2  0  0  0  0
  8  7  1  0  0  0  0
  9  8  2  0  0  0  0
  9 10  1  0  0  0  0
 10 11  2  0  0  0  0
 11  6  1  0  0  0  0
 12 13  1  0  0  0  0
 13 14  2  0  0  0  0
 15 14  1  0  0  0  0
 16 12  1  0  0  0  0
 16 15  2  0  0  0  0
 17 18  1  0  0  0  0
 18 19  1  0  0  0  0
 19 20  2  0  0  0  0
 21 12  1  0  0  0  0
 21 20  1  0  0  0  0
 22 21  2  0  0  0  0
 23 22  1  0  0  0  0
 23 18  2  0  0  0  0
 24 25  2  0  0  0  0
 24 26  1  0  0  0  0
M  END
>  <minimizedAffinity>
-3.12276506

$$$$

 OpenBabel09082221243D

 26 29  0  0  0  0  0  0  0  0999 V2000
    2.3880   -3.3360    0.8310 C   0  0  0  0  0  0  0  0  0  0  0  0
    2.2100   -4.5050    1.6470 C   0  0  0  0  0  3  0  0  0  0  0  0
    0.9180   -4.9910    1.6340 C   0  0  0  0  0  0  0  0  0  0  0  0
   -0.0700   -4.0470    0.6070 S   0  0  0  0  0  0  0  0  0  0  0  0
    1.2390   -3.0410    0.1160 C   0  0  0  0  0  0  0  0  0  0  0  0
    0.3550   -6.1170    2.3900 C   0  0  0  0  0  0  0  0  0  0  0  0
    1.0880   -6.7670    3.3940 C   0  0  0  0  0  3  0  0  0  0  0  0
    0.5320   -7.8290    4.1130 C   0  0  0  0  0  3  0  0  0  0  0  0
   -0.7670   -8.2540    3.8380 C   0  0  0  0  0  3  0  0  0  0  0  0
   -1.5090   -7.6170    2.8470 C   0  0  0  0  0  3  0  0  0  0  0  0
   -0.9530   -6.5540    2.1290 C   0  0  0  0  0  3  0  0  0  0  0  0
    4.9080   -2.9180    0.1720 N   0  0  0  0  0  0  0  0  0  0  0  0
    5.8400   -1.9820    0.5570 N   0  0  0  0  0  0  0  0  0  0  0  0
    5.2400   -1.0480    1.2800 N   0  0  0  0  0  0  0  0  0  0  0  0
    3.9400   -1.4140    1.4280 C   0  0  0  0  0  3  0  0  0  0  0  0
    3.6990   -2.6120    0.7900 C   0  0  0  0  0  0  0  0  0  0  0  0
    6.0310   -6.4280   -4.2400 C   0  0  0  0  0  1  0  0  0  0  0  0
    5.7570   -5.5060   -3.0910 C   0  0  0  0  0  0  0  0  0  0  0  0
    6.2790   -5.7800   -1.8230 C   0  0  0  0  0  3  0  0  0  0  0  0
    6.0160   -4.9320   -0.7410 C   0  0  0  0  0  3  0  0  0  0  0  0
    5.2260   -3.7910   -0.9130 C   0  0  0  0  0  0  0  0  0  0  0  0
    4.6790   -3.5320   -2.1800 C   0  0  0  0  0  3  0  0  0  0  0  0
    4.9410   -4.3840   -3.2580 C   0  0  0  0  0  3  0  0  0  0  0  0
    1.0810   -2.0460   -0.9880 C   0  0  0  0  0  0  0  0  0  0  0  0
    1.3000   -2.4530   -2.1710 O   0  0  0  0  0  0  0  0  0  0  0  0
    0.7630   -0.8620   -0.6620 O   0  0  0  0  0  1  0  0  0  0  0  0
  1  2  1  0  0  0  0
  3  2  2  0  0  0  0
  3  6  1  0  0  0  0
  4  3  1  0  0  0  0
  5  4  1  0  0  0  0
  5  1  2  0  0  0  0
  6  7  1  0  0  0  0
  7  8  2  0  0  0  0
  9  8  1  0  0  0  0
 10  9  2  0  0  0  0
 11  6  2  0  0  0  0
 11 10  1  0  0  0  0
 12 13  1  0  0  0  0
 12 16  1  0  0  0  0
 13 14  2  0  0  0  0
 14 15  1  0  0  0  0
 16  1  1  0  0  0  0
 16 15  2  0  0  0  0
 17 18  1  0  0  0  0
 18 19  1  0  0  0  0
 19 20  2  0  0  0  0
 21 20  1  0  0  0  0
 21 12  1  0  0  0  0
 22 21  2  0  0  0  0
 23 18  2  0  0  0  0
 23 22  1  0  0  0  0
 24 26  1  0  0  0  0
 24  5  1  0  0  0  0
 25 24  2  0  0  0  0
M  END
>  <minimizedAffinity>
-3.01982284

$$$$

 OpenBabel09082221243D

 26 29  0  0  0  0  0  0  0  0999 V2000
    1.9300    1.5290    1.9650 C   0  0  0  0  0  0  0  0  0  0  0  0
    1.3800    0.4600    1.1790 C   0  0  0  0  0  3  0  0  0  0  0  0
    2.1310   -0.6970    1.2240 C   0  0  0  0  0  0  0  0  0  0  0  0
    3.4870   -0.4940    2.2450 S   0  0  0  0  0  0  0  0  0  0  0  0
    3.0300    1.1050    2.6920 C   0  0  0  0  0  0  0  0  0  0  0  0
    1.9170   -1.9590    0.5030 C   0  0  0  0  0  0  0  0  0  0  0  0
    1.0620   -2.0330   -0.6070 C   0  0  0  0  0  3  0  0  0  0  0  0
    0.8800   -3.2390   -1.2890 C   0  0  0  0  0  3  0  0  0  0  0  0
    1.5520   -4.3870   -0.8720 C   0  0  0  0  0  3  0  0  0  0  0  0
    2.4070   -4.3280    0.2250 C   0  0  0  0  0  3  0  0  0  0  0  0
    2.5900   -3.1210    0.9070 C   0  0  0  0  0  3  0  0  0  0  0  0
    1.5030    4.0040    1.1570 N   0  0  0  0  0  0  0  0  0  0  0  0
    0.7670    5.0480    1.6680 N   0  0  0  0  0  0  0  0  0  0  0  0
    0.0300    4.6030    2.6750 N   0  0  0  0  0  0  0  0  0  0  0  0
    0.3410    3.2950    2.8680 C   0  0  0  0  0  3  0  0  0  0  0  0
    1.3040    2.8900    1.9680 C   0  0  0  0  0  0  0  0  0  0  0  0
    3.6590    4.4420   -4.1540 C   0  0  0  0  0  1  0  0  0  0  0  0
    3.1030    4.3460   -2.7660 C   0  0  0  0  0  0  0  0  0  0  0  0
    3.9590    4.2400   -1.6650 C   0  0  0  0  0  3  0  0  0  0  0  0
    3.4470    4.1350   -0.3670 C   0  0  0  0  0  3  0  0  0  0  0  0
    2.0650    4.1400   -0.1480 C   0  0  0  0  0  0  0  0  0  0  0  0
    1.2070    4.2180   -1.2570 C   0  0  0  0  0  3  0  0  0  0  0  0
    1.7220    4.3180   -2.5530 C   0  0  0  0  0  3  0  0  0  0  0  0
    3.7480    1.8440    3.7760 C   0  0  0  0  0  0  0  0  0  0  0  0
    3.4830    1.5150    4.9740 O   0  0  0  0  0  1  0  0  0  0  0  0
    4.5510    2.7590    3.4210 O   0  0  0  0  0  0  0  0  0  0  0  0
  1 16  1  0  0  0  0
  1  5  2  0  0  0  0
  2  3  2  0  0  0  0
  2  1  1  0  0  0  0
  3  4  1  0  0  0  0
  4  5  1  0  0  0  0
  5 24  1  0  0  0  0
  6 11  1  0  0  0  0
  6  3  1  0  0  0  0
  7  6  2  0  0  0  0
  8  9  2  0  0  0  0
  8  7  1  0  0  0  0
  9 10  1  0  0  0  0
 10 11  2  0  0  0  0
 12 13  1  0  0  0  0
 12 16  1  0  0  0  0
 13 14  2  0  0  0  0
 14 15  1  0  0  0  0
 16 15  2  0  0  0  0
 17 18  1  0  0  0  0
 18 23  2  0  0  0  0
 18 19  1  0  0  0  0
 19 20  2  0  0  0  0
 20 21  1  0  0  0  0
 21 12  1  0  0  0  0
 22 21  2  0  0  0  0
 23 22  1  0  0  0  0
 24 25  1  0  0  0  0
 26 24  2  0  0  0  0
M  END
>  <minimizedAffinity>
-2.95393395

$$$$

 OpenBabel09082221243D

 26 29  0  0  0  0  0  0  0  0999 V2000
    4.2310   -2.5370    2.4050 C   0  0  0  0  0  0  0  0  0  0  0  0
    4.0870   -3.4060    1.2710 C   0  0  0  0  0  3  0  0  0  0  0  0
    5.2100   -3.4550    0.4710 C   0  0  0  0  0  0  0  0  0  0  0  0
    6.4510   -2.4710    1.1150 S   0  0  0  0  0  0  0  0  0  0  0  0
    5.5220   -2.0440    2.5010 C   0  0  0  0  0  0  0  0  0  0  0  0
    5.4050   -4.1750   -0.7950 C   0  0  0  0  0  0  0  0  0  0  0  0
    4.8040   -3.7400   -1.9850 C   0  0  0  0  0  3  0  0  0  0  0  0
    5.0100   -4.4310   -3.1840 C   0  0  0  0  0  3  0  0  0  0  0  0
    5.8220   -5.5630   -3.2070 C   0  0  0  0  0  3  0  0  0  0  0  0
    6.4280   -6.0050   -2.0330 C   0  0  0  0  0  3  0  0  0  0  0  0
    6.2230   -5.3140   -0.8360 C   0  0  0  0  0  3  0  0  0  0  0  0
    2.2500   -1.1830    3.5020 N   0  0  0  0  0  0  0  0  0  0  0  0
    1.4410   -1.4120    4.5910 N   0  0  0  0  0  0  0  0  0  0  0  0
    1.6490   -2.6450    5.0300 N   0  0  0  0  0  0  0  0  0  0  0  0
    2.6410   -3.1890    4.2780 C   0  0  0  0  0  3  0  0  0  0  0  0
    3.0870   -2.2840    3.3370 C   0  0  0  0  0  0  0  0  0  0  0  0
    1.0530    3.3090    0.1200 C   0  0  0  0  0  1  0  0  0  0  0  0
    1.3650    2.1260    0.9850 C   0  0  0  0  0  0  0  0  0  0  0  0
    0.3850    1.1650    1.2530 C   0  0  0  0  0  3  0  0  0  0  0  0
    0.6640    0.0650    2.0720 C   0  0  0  0  0  3  0  0  0  0  0  0
    1.9350   -0.0920    2.6360 C   0  0  0  0  0  0  0  0  0  0  0  0
    2.9090    0.8890    2.3900 C   0  0  0  0  0  3  0  0  0  0  0  0
    2.6250    1.9880    1.5740 C   0  0  0  0  0  3  0  0  0  0  0  0
    6.1280   -1.2870    3.6390 C   0  0  0  0  0  0  0  0  0  0  0  0
    6.6210   -1.9690    4.5910 O   0  0  0  0  0  1  0  0  0  0  0  0
    6.0860   -0.0210    3.5830 O   0  0  0  0  0  0  0  0  0  0  0  0
  1  5  2  0  0  0  0
  1 16  1  0  0  0  0
  2  1  1  0  0  0  0
  3  4  1  0  0  0  0
  3  2  2  0  0  0  0
  4  5  1  0  0  0  0
  5 24  1  0  0  0  0
  6  3  1  0  0  0  0
  7  6  2  0  0  0  0
  8  7  1  0  0  0  0
  9  8  2  0  0  0  0
  9 10  1  0  0  0  0
 10 11  2  0  0  0  0
 11  6  1  0  0  0  0
 12 13  1  0  0  0  0
 13 14  2  0  0  0  0
 15 14  1  0  0  0  0
 16 12  1  0  0  0  0
 16 15  2  0  0  0  0
 17 18  1  0  0  0  0
 18 19  2  0  0  0  0
 18 23  1  0  0  0  0
 19 20  1  0  0  0  0
 20 21  2  0  0  0  0
 21 12  1  0  0  0  0
 22 21  1  0  0  0  0
 23 22  2  0  0  0  0
 24 25  1  0  0  0  0
 26 24  2  0  0  0  0
M  END
>  <minimizedAffinity>
-2.91285038

$$$$

 OpenBabel09082221243D

 26 29  0  0  0  0  0  0  0  0999 V2000
    3.4500   -3.4940    0.8030 C   0  0  0  0  0  0  0  0  0  0  0  0
    3.1390   -4.7570    1.4120 C   0  0  0  0  0  3  0  0  0  0  0  0
    3.9910   -5.0930    2.4450 C   0  0  0  0  0  0  0  0  0  0  0  0
    5.1470   -3.8590    2.6960 S   0  0  0  0  0  0  0  0  0  0  0  0
    4.4650   -2.8420    1.4850 C   0  0  0  0  0  0  0  0  0  0  0  0
    4.0200   -6.3230    3.2470 C   0  0  0  0  0  0  0  0  0  0  0  0
    3.1420   -6.5180    4.3230 C   0  0  0  0  0  3  0  0  0  0  0  0
    3.1760   -7.7010    5.0680 C   0  0  0  0  0  3  0  0  0  0  0  0
    4.0860   -8.7050    4.7430 C   0  0  0  0  0  3  0  0  0  0  0  0
    4.9610   -8.5280    3.6750 C   0  0  0  0  0  3  0  0  0  0  0  0
    4.9270   -7.3460    2.9300 C   0  0  0  0  0  3  0  0  0  0  0  0
    2.9710   -3.0670   -1.7560 N   0  0  0  0  0  0  0  0  0  0  0  0
    2.0110   -2.3450   -2.4270 N   0  0  0  0  0  0  0  0  0  0  0  0
    1.0900   -1.9450   -1.5630 N   0  0  0  0  0  0  0  0  0  0  0  0
    1.4870   -2.3390   -0.3250 C   0  0  0  0  0  3  0  0  0  0  0  0
    2.6940   -3.0030   -0.3930 C   0  0  0  0  0  0  0  0  0  0  0  0
    6.4230   -6.3950   -4.9260 C   0  0  0  0  0  1  0  0  0  0  0  0
    5.5350   -5.5300   -4.0840 C   0  0  0  0  0  0  0  0  0  0  0  0
    4.7000   -6.1010   -3.1170 C   0  0  0  0  0  3  0  0  0  0  0  0
    3.8570   -5.3020   -2.3370 C   0  0  0  0  0  3  0  0  0  0  0  0
    3.8390   -3.9130   -2.5090 C   0  0  0  0  0  0  0  0  0  0  0  0
    4.6570   -3.3450   -3.5000 C   0  0  0  0  0  3  0  0  0  0  0  0
    5.4950   -4.1480   -4.2810 C   0  0  0  0  0  3  0  0  0  0  0  0
    4.9290   -1.4330    1.3020 C   0  0  0  0  0  0  0  0  0  0  0  0
    6.0250   -1.2600    0.6840 O   0  0  0  0  0  0  0  0  0  0  0  0
    4.2080   -0.5150    1.7980 O   0  0  0  0  0  1  0  0  0  0  0  0
  1  2  1  0  0  0  0
  1  5  2  0  0  0  0
  2  3  2  0  0  0  0
  3  4  1  0  0  0  0
  3  6  1  0  0  0  0
  5  4  1  0  0  0  0
  6  7  1  0  0  0  0
  7  8  2  0  0  0  0
  9  8  1  0  0  0  0
 10  9  2  0  0  0  0
 11  6  2  0  0  0  0
 11 10  1  0  0  0  0
 12 16  1  0  0  0  0
 13 12  1  0  0  0  0
 13 14  2  0  0  0  0
 14 15  1  0  0  0  0
 16 15  2  0  0  0  0
 16  1  1  0  0  0  0
 17 18  1  0  0  0  0
 18 19  1  0  0  0  0
 19 20  2  0  0  0  0
 21 20  1  0  0  0  0
 21 12  1  0  0  0  0
 22 21  2  0  0  0  0
 23 18  2  0  0  0  0
 23 22  1  0  0  0  0
 24  5  1  0  0  0  0
 24 26  1  0  0  0  0
 25 24  2  0  0  0  0
M  END
>  <minimizedAffinity>
-2.88444924

$$$$

 OpenBabel09082221243D

 26 29  0  0  0  0  0  0  0  0999 V2000
    1.5720   -3.9690   -2.0340 C   0  0  0  0  0  0  0  0  0  0  0  0
    1.0820   -5.3170   -2.1020 C   0  0  0  0  0  3  0  0  0  0  0  0
   -0.0380   -5.5340   -1.3240 C   0  0  0  0  0  0  0  0  0  0  0  0
   -0.5110   -4.0920   -0.5360 S   0  0  0  0  0  0  0  0  0  0  0  0
    0.7240   -3.1610   -1.2940 C   0  0  0  0  0  0  0  0  0  0  0  0
   -0.7660   -6.7880   -1.0950 C   0  0  0  0  0  0  0  0  0  0  0  0
   -0.1300   -7.9200   -0.5630 C   0  0  0  0  0  3  0  0  0  0  0  0
   -0.8420   -9.1020   -0.3390 C   0  0  0  0  0  3  0  0  0  0  0  0
   -2.2000   -9.1670   -0.6430 C   0  0  0  0  0  3  0  0  0  0  0  0
   -2.8470   -8.0510   -1.1670 C   0  0  0  0  0  3  0  0  0  0  0  0
   -2.1360   -6.8690   -1.3900 C   0  0  0  0  0  3  0  0  0  0  0  0
    4.1090   -3.2850   -2.2660 N   0  0  0  0  0  0  0  0  0  0  0  0
    4.8710   -2.8330   -3.3180 N   0  0  0  0  0  0  0  0  0  0  0  0
    4.1670   -2.9380   -4.4360 N   0  0  0  0  0  0  0  0  0  0  0  0
    2.9280   -3.3840   -4.1030 C   0  0  0  0  0  3  0  0  0  0  0  0
    2.8300   -3.5650   -2.7390 C   0  0  0  0  0  0  0  0  0  0  0  0
    6.7280   -4.8320    2.6120 C   0  0  0  0  0  1  0  0  0  0  0  0
    6.0570   -4.4130    1.3400 C   0  0  0  0  0  0  0  0  0  0  0  0
    5.1490   -3.3490    1.3350 C   0  0  0  0  0  3  0  0  0  0  0  0
    4.5070   -2.9600    0.1540 C   0  0  0  0  0  3  0  0  0  0  0  0
    4.7670   -3.6300   -1.0460 C   0  0  0  0  0  0  0  0  0  0  0  0
    5.6570   -4.7170   -1.0340 C   0  0  0  0  0  3  0  0  0  0  0  0
    6.2940   -5.1040    0.1490 C   0  0  0  0  0  3  0  0  0  0  0  0
    0.7640   -1.6720   -1.1640 C   0  0  0  0  0  0  0  0  0  0  0  0
    0.3260   -0.9930   -2.1440 O   0  0  0  0  0  0  0  0  0  0  0  0
    1.2530   -1.1960   -0.0950 O   0  0  0  0  0  1  0  0  0  0  0  0
  1  5  2  0  0  0  0
  2  1  1  0  0  0  0
  2  3  2  0  0  0  0
  3  6  1  0  0  0  0
  3  4  1  0  0  0  0
  5 24  1  0  0  0  0
  5  4  1  0  0  0  0
  6  7  1  0  0  0  0
  7  8  2  0  0  0  0
  9  8  1  0  0  0  0
 10  9  2  0  0  0  0
 11 10  1  0  0  0  0
 11  6  2  0  0  0  0
 12 21  1  0  0  0  0
 13 12  1  0  0  0  0
 14 15  1  0  0  0  0
 14 13  2  0  0  0  0
 15 16  2  0  0  0  0
 16 12  1  0  0  0  0
 16  1  1  0  0  0  0
 18 17  1  0  0  0  0
 19 18  1  0  0  0  0
 20 19  2  0  0  0  0
 21 22  2  0  0  0  0
 21 20  1  0  0  0  0
 22 23  1  0  0  0  0
 23 18  2  0  0  0  0
 24 26  1  0  0  0  0
 25 24  2  0  0  0  0
M  END
>  <minimizedAffinity>
-2.81766438

$$$$
