
 OpenBabel09092210413D

 26 29  0  0  0  0  0  0  0  0999 V2000
    2.3880   -3.3360    0.8310 C   0  0  0  0  0  0  0  0  0  0  0  0
    2.2100   -4.5050    1.6470 C   0  0  0  0  0  3  0  0  0  0  0  0
    0.9180   -4.9910    1.6340 C   0  0  0  0  0  0  0  0  0  0  0  0
   -0.0700   -4.0470    0.6070 S   0  0  0  0  0  0  0  0  0  0  0  0
    1.2390   -3.0410    0.1160 C   0  0  0  0  0  0  0  0  0  0  0  0
    0.3550   -6.1170    2.3900 C   0  0  0  0  0  0  0  0  0  0  0  0
    1.0880   -6.7670    3.3940 C   0  0  0  0  0  3  0  0  0  0  0  0
    0.5320   -7.8290    4.1130 C   0  0  0  0  0  3  0  0  0  0  0  0
   -0.7670   -8.2540    3.8380 C   0  0  0  0  0  3  0  0  0  0  0  0
   -1.5090   -7.6170    2.8470 C   0  0  0  0  0  3  0  0  0  0  0  0
   -0.9530   -6.5540    2.1290 C   0  0  0  0  0  3  0  0  0  0  0  0
    4.9080   -2.9180    0.1720 N   0  0  0  0  0  0  0  0  0  0  0  0
    5.8400   -1.9820    0.5570 N   0  0  0  0  0  0  0  0  0  0  0  0
    5.2400   -1.0480    1.2800 N   0  0  0  0  0  0  0  0  0  0  0  0
    3.9400   -1.4140    1.4280 C   0  0  0  0  0  3  0  0  0  0  0  0
    3.6990   -2.6120    0.7900 C   0  0  0  0  0  0  0  0  0  0  0  0
    6.0310   -6.4280   -4.2400 C   0  0  0  0  0  1  0  0  0  0  0  0
    5.7570   -5.5060   -3.0910 C   0  0  0  0  0  0  0  0  0  0  0  0
    6.2790   -5.7800   -1.8230 C   0  0  0  0  0  3  0  0  0  0  0  0
    6.0160   -4.9320   -0.7410 C   0  0  0  0  0  3  0  0  0  0  0  0
    5.2260   -3.7910   -0.9130 C   0  0  0  0  0  0  0  0  0  0  0  0
    4.6790   -3.5320   -2.1800 C   0  0  0  0  0  3  0  0  0  0  0  0
    4.9410   -4.3840   -3.2580 C   0  0  0  0  0  3  0  0  0  0  0  0
    1.0810   -2.0460   -0.9880 C   0  0  0  0  0  0  0  0  0  0  0  0
    1.3000   -2.4530   -2.1710 O   0  0  0  0  0  0  0  0  0  0  0  0
    0.7630   -0.8620   -0.6620 O   0  0  0  0  0  1  0  0  0  0  0  0
  1  2  1  0  0  0  0
  3  2  2  0  0  0  0
  3  6  1  0  0  0  0
  4  3  1  0  0  0  0
  5  4  1  0  0  0  0
  5  1  2  0  0  0  0
  6  7  1  0  0  0  0
  7  8  2  0  0  0  0
  9  8  1  0  0  0  0
 10  9  2  0  0  0  0
 11  6  2  0  0  0  0
 11 10  1  0  0  0  0
 12 13  1  0  0  0  0
 12 16  1  0  0  0  0
 13 14  2  0  0  0  0
 14 15  1  0  0  0  0
 16  1  1  0  0  0  0
 16 15  2  0  0  0  0
 17 18  1  0  0  0  0
 18 19  1  0  0  0  0
 19 20  2  0  0  0  0
 21 20  1  0  0  0  0
 21 12  1  0  0  0  0
 22 21  2  0  0  0  0
 23 18  2  0  0  0  0
 23 22  1  0  0  0  0
 24 26  1  0  0  0  0
 24  5  1  0  0  0  0
 25 24  2  0  0  0  0
M  END
>  <minimizedAffinity>
-3.01982284

$$$$
