
 OpenBabel09092210413D

 26 29  0  0  0  0  0  0  0  0999 V2000
    3.6150   -3.5150   -1.3040 C   0  0  0  0  0  0  0  0  0  0  0  0
    2.4170   -3.4110   -0.5190 C   0  0  0  0  0  3  0  0  0  0  0  0
    1.3320   -2.9430   -1.2330 C   0  0  0  0  0  0  0  0  0  0  0  0
    1.7610   -2.6610   -2.8630 S   0  0  0  0  0  0  0  0  0  0  0  0
    3.3680   -3.2390   -2.6390 C   0  0  0  0  0  0  0  0  0  0  0  0
   -0.0250   -2.6490   -0.7530 C   0  0  0  0  0  0  0  0  0  0  0  0
   -0.6480   -3.4460    0.2180 C   0  0  0  0  0  3  0  0  0  0  0  0
   -1.9350   -3.1440    0.6730 C   0  0  0  0  0  3  0  0  0  0  0  0
   -2.6140   -2.0380    0.1650 C   0  0  0  0  0  3  0  0  0  0  0  0
   -2.0060   -1.2340   -0.7960 C   0  0  0  0  0  3  0  0  0  0  0  0
   -0.7190   -1.5360   -1.2510 C   0  0  0  0  0  3  0  0  0  0  0  0
    5.6790   -5.0780   -0.7930 N   0  0  0  0  0  0  0  0  0  0  0  0
    6.7280   -4.9930    0.0930 N   0  0  0  0  0  0  0  0  0  0  0  0
    6.7220   -3.7930    0.6540 N   0  0  0  0  0  0  0  0  0  0  0  0
    5.6320   -3.1270    0.1920 C   0  0  0  0  0  3  0  0  0  0  0  0
    4.9160   -3.9180   -0.6820 C   0  0  0  0  0  0  0  0  0  0  0  0
    5.8020   -9.1030   -4.8960 C   0  0  0  0  0  1  0  0  0  0  0  0
    5.7770   -8.0660   -3.8130 C   0  0  0  0  0  0  0  0  0  0  0  0
    4.7920   -8.1030   -2.8210 C   0  0  0  0  0  3  0  0  0  0  0  0
    4.7520   -7.1310   -1.8150 C   0  0  0  0  0  3  0  0  0  0  0  0
    5.7030   -6.1060   -1.7840 C   0  0  0  0  0  0  0  0  0  0  0  0
    6.6740   -6.0540   -2.7980 C   0  0  0  0  0  3  0  0  0  0  0  0
    6.7080   -7.0250   -3.8040 C   0  0  0  0  0  3  0  0  0  0  0  0
    4.2900   -3.4400   -3.7990 C   0  0  0  0  0  0  0  0  0  0  0  0
    5.3010   -2.6740   -3.8750 O   0  0  0  0  0  1  0  0  0  0  0  0
    3.9840   -4.3440   -4.6340 O   0  0  0  0  0  0  0  0  0  0  0  0
  1 16  1  0  0  0  0
  1  2  1  0  0  0  0
  3  6  1  0  0  0  0
  3  2  2  0  0  0  0
  4  5  1  0  0  0  0
  4  3  1  0  0  0  0
  5  1  2  0  0  0  0
  6  7  1  0  0  0  0
  7  8  2  0  0  0  0
  9  8  1  0  0  0  0
 10  9  2  0  0  0  0
 11 10  1  0  0  0  0
 11  6  2  0  0  0  0
 12 16  1  0  0  0  0
 12 13  1  0  0  0  0
 13 14  2  0  0  0  0
 15 14  1  0  0  0  0
 16 15  2  0  0  0  0
 17 18  1  0  0  0  0
 18 23  2  0  0  0  0
 18 19  1  0  0  0  0
 19 20  2  0  0  0  0
 20 21  1  0  0  0  0
 21 12  1  0  0  0  0
 22 21  2  0  0  0  0
 23 22  1  0  0  0  0
 24  5  1  0  0  0  0
 25 24  1  0  0  0  0
 26 24  2  0  0  0  0
M  END
>  <minimizedAffinity>
-3.20491457

$$$$
