
 OpenBabel09122223093D

 40 45  0  0  1  0  0  0  0  0999 V2000
    6.4870   -6.3730    0.4770 C   0  0  0  0  0  0  0  0  0  0  0  0
    7.6860   -6.2210    1.1790 C   0  0  0  0  0  3  0  0  0  0  0  0
    8.6950   -5.3910    0.6800 C   0  0  0  0  0  3  0  0  0  0  0  0
    8.5320   -4.7130   -0.5320 C   0  0  0  0  0  0  0  0  0  0  0  0
    7.3550   -4.8930   -1.2510 C   0  0  0  0  0  3  0  0  0  0  0  0
    6.3400   -5.7170   -0.7500 C   0  0  0  0  0  3  0  0  0  0  0  0
    2.3390  -10.5030    1.7480 C   0  0  0  0  0  0  0  0  0  0  0  0
    2.1590   -9.7550    2.9210 C   0  0  0  0  0  3  0  0  0  0  0  0
    2.8880   -8.5870    3.1820 C   0  0  0  0  0  3  0  0  0  0  0  0
    3.8220   -8.1780    2.2210 C   0  0  0  0  0  0  0  0  0  0  0  0
    4.0320   -8.9000    1.0500 C   0  0  0  0  0  0  0  0  0  0  0  0
    3.2890  -10.0650    0.8050 C   0  0  0  0  0  3  0  0  0  0  0  0
    4.9980   -8.3070    0.2790 N   0  0  0  0  0  0  0  0  0  0  0  0
    5.4190   -7.2550    0.9530 C   0  0  0  0  0  0  0  0  0  0  0  0
    4.6840   -7.1020    2.1210 N   0  0  0  0  0  0  0  0  0  0  0  0
    4.7660   -5.9720    3.0430 C   0  0  0  0  0  3  0  0  0  0  0  0
    4.2630   -4.6530    2.4320 C   0  0  0  0  0  2  0  0  0  0  0  0
    4.4180   -3.4930    3.4160 C   0  0  0  0  0  2  0  0  0  0  0  0
    3.7450   -3.7940    4.7510 C   0  0  0  0  0  2  0  0  0  0  0  0
    4.2590   -5.0950    5.3620 C   0  0  0  0  0  2  0  0  0  0  0  0
    4.1050   -6.2700    4.3990 C   0  0  0  0  0  2  0  0  0  0  0  0
    1.9000  -12.5090    0.5450 O   0  0  0  0  0  0  0  0  0  0  0  0
    1.5250  -11.7590    1.5020 C   0  0  0  0  0  0  0  0  0  0  0  0
    0.5320  -11.9710    2.2650 O   0  0  0  0  0  1  0  0  0  0  0  0
    9.6130   -3.9710   -0.9080 O   0  0  0  0  0  0  0  0  0  0  0  0
   10.5000   -3.3520    0.0460 C   0  0  1  0  0  3  0  0  0  0  0  0
   11.9960   -3.5280   -0.2460 C   0  0  0  0  0  0  0  0  0  0  0  0
   12.9610   -3.6010    0.7720 C   0  0  0  0  0  3  0  0  0  0  0  0
   14.3200   -3.7330    0.4680 C   0  0  0  0  0  3  0  0  0  0  0  0
   14.7340   -3.7740   -0.8590 C   0  0  0  0  0  0  0  0  0  0  0  0
   16.4060   -3.9310   -1.2330 Cl  0  0  0  0  0  0  0  0  0  0  0  0
   13.8020   -3.6780   -1.8870 C   0  0  0  0  0  3  0  0  0  0  0  0
   12.4450   -3.5480   -1.5820 C   0  0  0  0  0  3  0  0  0  0  0  0
   10.0080   -1.9910    0.5580 C   0  0  0  0  0  0  0  0  0  0  0  0
   10.2460   -0.8500   -0.2320 C   0  0  0  0  0  3  0  0  0  0  0  0
    9.8200    0.4140    0.1830 C   0  0  0  0  0  3  0  0  0  0  0  0
    9.1530    0.5540    1.3960 C   0  0  0  0  0  0  0  0  0  0  0  0
    8.6220    2.1080    1.9070 Cl  0  0  0  0  0  0  0  0  0  0  0  0
    8.9130   -0.5580    2.1990 C   0  0  0  0  0  3  0  0  0  0  0  0
    9.3400   -1.8230    1.7830 C   0  0  0  0  0  3  0  0  0  0  0  0
  1 14  1  0  0  0  0
  1  2  1  0  0  0  0
  3  2  2  0  0  0  0
  4  3  1  0  0  0  0
  5  6  1  0  0  0  0
  5  4  2  0  0  0  0
  6  1  2  0  0  0  0
  7  8  1  0  0  0  0
  8  9  2  0  0  0  0
 10  9  1  0  0  0  0
 11 10  2  0  0  0  0
 12 11  1  0  0  0  0
 12  7  2  0  0  0  0
 13 14  2  0  0  0  0
 13 11  1  0  0  0  0
 14 15  1  0  0  0  0
 15 10  1  0  0  0  0
 15 16  1  0  0  0  0
 16 21  1  0  0  0  0
 17 16  1  0  0  0  0
 17 18  1  0  0  0  0
 18 19  1  0  0  0  0
 19 20  1  0  0  0  0
 21 20  1  0  0  0  0
 22 23  2  0  0  0  0
 23  7  1  0  0  0  0
 23 24  1  0  0  0  0
 25  4  1  0  0  0  0
 26 25  1  6  0  0  0
 26 34  1  0  0  0  0
 27 26  1  0  0  0  0
 27 28  1  0  0  0  0
 29 28  2  0  0  0  0
 30 29  1  0  0  0  0
 31 30  1  0  0  0  0
 32 33  1  0  0  0  0
 32 30  2  0  0  0  0
 33 27  2  0  0  0  0
 34 40  1  0  0  0  0
 35 36  1  0  0  0  0
 35 34  2  0  0  0  0
 36 37  2  0  0  0  0
 37 38  1  0  0  0  0
 37 39  1  0  0  0  0
 40 39  2  0  0  0  0
M  END
>  <minimizedAffinity>
-10.1131687

$$$$

 OpenBabel09122223093D

 40 45  0  0  1  0  0  0  0  0999 V2000
    6.2040   -6.6730    0.6070 C   0  0  0  0  0  0  0  0  0  0  0  0
    7.4700   -6.6490    1.2000 C   0  0  0  0  0  3  0  0  0  0  0  0
    8.4810   -5.8390    0.6720 C   0  0  0  0  0  3  0  0  0  0  0  0
    8.2520   -5.0550   -0.4620 C   0  0  0  0  0  0  0  0  0  0  0  0
    7.0050   -5.1060   -1.0770 C   0  0  0  0  0  3  0  0  0  0  0  0
    5.9890   -5.9090   -0.5450 C   0  0  0  0  0  3  0  0  0  0  0  0
    2.0040  -10.7080    2.0050 C   0  0  0  0  0  0  0  0  0  0  0  0
    1.8620   -9.9440    3.1740 C   0  0  0  0  0  3  0  0  0  0  0  0
    2.6190   -8.7890    3.4080 C   0  0  0  0  0  3  0  0  0  0  0  0
    3.5420   -8.4070    2.4240 C   0  0  0  0  0  0  0  0  0  0  0  0
    3.7130   -9.1460    1.2560 C   0  0  0  0  0  0  0  0  0  0  0  0
    2.9430  -10.2980    1.0380 C   0  0  0  0  0  3  0  0  0  0  0  0
    4.6750   -8.5790    0.4590 N   0  0  0  0  0  0  0  0  0  0  0  0
    5.1300   -7.5290    1.1140 C   0  0  0  0  0  0  0  0  0  0  0  0
    4.4220   -7.3500    2.2950 N   0  0  0  0  0  0  0  0  0  0  0  0
    4.5440   -6.2130    3.2030 C   0  0  0  0  0  3  0  0  0  0  0  0
    4.1870   -4.8690    2.5450 C   0  0  0  0  0  2  0  0  0  0  0  0
    4.3810   -3.7070    3.5190 C   0  0  0  0  0  2  0  0  0  0  0  0
    3.6120   -3.9260    4.8180 C   0  0  0  0  0  2  0  0  0  0  0  0
    3.9830   -5.2530    5.4760 C   0  0  0  0  0  2  0  0  0  0  0  0
    3.7870   -6.4290    4.5240 C   0  0  0  0  0  2  0  0  0  0  0  0
    0.2860  -12.2150    2.6730 O   0  0  0  0  0  1  0  0  0  0  0  0
    1.1610  -11.9500    1.7880 C   0  0  0  0  0  0  0  0  0  0  0  0
    1.3890  -12.6350    0.7420 O   0  0  0  0  0  0  0  0  0  0  0  0
    9.3400   -4.3470   -0.8820 O   0  0  0  0  0  0  0  0  0  0  0  0
    9.7150   -3.0820   -0.2990 C   0  0  1  0  0  3  0  0  0  0  0  0
    9.4770   -2.9640    1.2120 C   0  0  0  0  0  0  0  0  0  0  0  0
    8.1910   -2.8700    1.7700 C   0  0  0  0  0  3  0  0  0  0  0  0
    8.0140   -2.7360    3.1510 C   0  0  0  0  0  3  0  0  0  0  0  0
    9.1200   -2.6740    3.9910 C   0  0  0  0  0  0  0  0  0  0  0  0
    8.9020   -2.5020    5.6890 Cl  0  0  0  0  0  0  0  0  0  0  0  0
   10.4060   -2.7390    3.4620 C   0  0  0  0  0  3  0  0  0  0  0  0
   10.5810   -2.8740    2.0830 C   0  0  0  0  0  3  0  0  0  0  0  0
   11.0010   -2.4860   -0.8860 C   0  0  0  0  0  0  0  0  0  0  0  0
   12.1580   -3.2870   -0.9240 C   0  0  0  0  0  3  0  0  0  0  0  0
   13.3570   -2.7980   -1.4480 C   0  0  0  0  0  3  0  0  0  0  0  0
   13.4150   -1.4980   -1.9400 C   0  0  0  0  0  0  0  0  0  0  0  0
   14.8880   -0.8940   -2.5920 Cl  0  0  0  0  0  0  0  0  0  0  0  0
   12.2870   -0.6820   -1.9070 C   0  0  0  0  0  3  0  0  0  0  0  0
   11.0880   -1.1730   -1.3820 C   0  0  0  0  0  3  0  0  0  0  0  0
  1 14  1  0  0  0  0
  1  2  1  0  0  0  0
  3  2  2  0  0  0  0
  4  3  1  0  0  0  0
  5  6  1  0  0  0  0
  5  4  2  0  0  0  0
  6  1  2  0  0  0  0
  7  8  1  0  0  0  0
  8  9  2  0  0  0  0
 10  9  1  0  0  0  0
 11 10  2  0  0  0  0
 12 11  1  0  0  0  0
 12  7  2  0  0  0  0
 13 14  2  0  0  0  0
 13 11  1  0  0  0  0
 14 15  1  0  0  0  0
 15 10  1  0  0  0  0
 15 16  1  0  0  0  0
 16 21  1  0  0  0  0
 17 16  1  0  0  0  0
 17 18  1  0  0  0  0
 18 19  1  0  0  0  0
 19 20  1  0  0  0  0
 21 20  1  0  0  0  0
 23  7  1  0  0  0  0
 23 22  1  0  0  0  0
 24 23  2  0  0  0  0
 25  4  1  0  0  0  0
 26 25  1  1  0  0  0
 26 27  1  0  0  0  0
 27 28  2  0  0  0  0
 27 33  1  0  0  0  0
 28 29  1  0  0  0  0
 29 30  2  0  0  0  0
 30 31  1  0  0  0  0
 32 30  1  0  0  0  0
 33 32  2  0  0  0  0
 34 26  1  0  0  0  0
 35 34  1  0  0  0  0
 36 35  2  0  0  0  0
 37 39  2  0  0  0  0
 37 36  1  0  0  0  0
 38 37  1  0  0  0  0
 39 40  1  0  0  0  0
 40 34  2  0  0  0  0
M  END
>  <minimizedAffinity>
-9.80203056

$$$$

 OpenBabel09122223093D

 40 45  0  0  1  0  0  0  0  0999 V2000
    6.3370   -6.5660    0.4470 C   0  0  0  0  0  0  0  0  0  0  0  0
    6.1560   -5.7920   -0.7020 C   0  0  0  0  0  3  0  0  0  0  0  0
    7.1870   -4.9690   -1.1680 C   0  0  0  0  0  3  0  0  0  0  0  0
    8.4060   -4.8920   -0.4890 C   0  0  0  0  0  0  0  0  0  0  0  0
    8.5750   -5.6320    0.6780 C   0  0  0  0  0  3  0  0  0  0  0  0
    7.5480   -6.4630    1.1420 C   0  0  0  0  0  3  0  0  0  0  0  0
    2.1690  -10.5930    1.9600 C   0  0  0  0  0  0  0  0  0  0  0  0
    2.0450   -9.8160    3.1220 C   0  0  0  0  0  3  0  0  0  0  0  0
    2.8030   -8.6560    3.3300 C   0  0  0  0  0  3  0  0  0  0  0  0
    3.7080   -8.2840    2.3270 C   0  0  0  0  0  0  0  0  0  0  0  0
    3.8630   -9.0360    1.1650 C   0  0  0  0  0  0  0  0  0  0  0  0
    3.0910  -10.1930    0.9730 C   0  0  0  0  0  3  0  0  0  0  0  0
    4.8100   -8.4760    0.3470 N   0  0  0  0  0  0  0  0  0  0  0  0
    5.2730   -7.4180    0.9810 C   0  0  0  0  0  0  0  0  0  0  0  0
    4.5840   -7.2270    2.1710 N   0  0  0  0  0  0  0  0  0  0  0  0
    4.7190   -6.0790    3.0650 C   0  0  0  0  0  3  0  0  0  0  0  0
    4.3140   -4.7480    2.4080 C   0  0  0  0  0  2  0  0  0  0  0  0
    4.5230   -3.5730    3.3630 C   0  0  0  0  0  2  0  0  0  0  0  0
    3.8040   -3.7930    4.6910 C   0  0  0  0  0  2  0  0  0  0  0  0
    4.2220   -5.1070    5.3470 C   0  0  0  0  0  2  0  0  0  0  0  0
    4.0130   -6.2960    4.4130 C   0  0  0  0  0  2  0  0  0  0  0  0
    1.7500  -12.7010    0.9380 O   0  0  0  0  0  0  0  0  0  0  0  0
    1.3260  -11.8390    1.7710 C   0  0  0  0  0  0  0  0  0  0  0  0
    0.2590  -11.9320    2.4560 O   0  0  0  0  0  1  0  0  0  0  0  0
    9.3000   -4.0220   -1.0390 O   0  0  0  0  0  0  0  0  0  0  0  0
   10.1530   -3.1770   -0.2410 C   0  0  1  0  0  3  0  0  0  0  0  0
   10.7410   -1.9640   -0.9740 C   0  0  0  0  0  0  0  0  0  0  0  0
   11.8240   -2.0690   -1.8620 C   0  0  0  0  0  3  0  0  0  0  0  0
   12.3510   -0.9360   -2.4920 C   0  0  0  0  0  3  0  0  0  0  0  0
   11.8150    0.3190   -2.2270 C   0  0  0  0  0  0  0  0  0  0  0  0
   12.4680    1.7120   -2.9960 Cl  0  0  0  0  0  0  0  0  0  0  0  0
   10.7590    0.4550   -1.3310 C   0  0  0  0  0  3  0  0  0  0  0  0
   10.2320   -0.6770   -0.7050 C   0  0  0  0  0  3  0  0  0  0  0  0
    9.6690   -2.9950    1.2040 C   0  0  0  0  0  0  0  0  0  0  0  0
   10.6210   -3.0280    2.2410 C   0  0  0  0  0  3  0  0  0  0  0  0
   10.2390   -2.8660    3.5750 C   0  0  0  0  0  3  0  0  0  0  0  0
    8.8980   -2.6720    3.8900 C   0  0  0  0  0  0  0  0  0  0  0  0
    8.4250   -2.4660    5.5320 Cl  0  0  0  0  0  0  0  0  0  0  0  0
    7.9360   -2.6420    2.8840 C   0  0  0  0  0  3  0  0  0  0  0  0
    8.3200   -2.8050    1.5490 C   0  0  0  0  0  3  0  0  0  0  0  0
  1 14  1  0  0  0  0
  1  6  1  0  0  0  0
  2  1  2  0  0  0  0
  3  2  1  0  0  0  0
  3  4  2  0  0  0  0
  4  5  1  0  0  0  0
  5  6  2  0  0  0  0
  7  8  1  0  0  0  0
  8  9  2  0  0  0  0
 10  9  1  0  0  0  0
 11 10  2  0  0  0  0
 12 11  1  0  0  0  0
 12  7  2  0  0  0  0
 13 14  2  0  0  0  0
 13 11  1  0  0  0  0
 14 15  1  0  0  0  0
 15 10  1  0  0  0  0
 15 16  1  0  0  0  0
 16 21  1  0  0  0  0
 17 16  1  0  0  0  0
 17 18  1  0  0  0  0
 18 19  1  0  0  0  0
 19 20  1  0  0  0  0
 21 20  1  0  0  0  0
 22 23  2  0  0  0  0
 23  7  1  0  0  0  0
 23 24  1  0  0  0  0
 25  4  1  0  0  0  0
 26 25  1  6  0  0  0
 26 34  1  0  0  0  0
 27 33  1  0  0  0  0
 27 26  1  0  0  0  0
 28 27  2  0  0  0  0
 29 30  2  0  0  0  0
 29 28  1  0  0  0  0
 30 32  1  0  0  0  0
 31 30  1  0  0  0  0
 32 33  2  0  0  0  0
 34 40  2  0  0  0  0
 34 35  1  0  0  0  0
 35 36  2  0  0  0  0
 36 37  1  0  0  0  0
 37 38  1  0  0  0  0
 39 37  2  0  0  0  0
 40 39  1  0  0  0  0
M  END
>  <minimizedAffinity>
-9.55528641

$$$$

 OpenBabel09122223093D

 40 45  0  0  1  0  0  0  0  0999 V2000
    3.7780   -3.0410    5.5100 C   0  0  0  0  0  0  0  0  0  0  0  0
    2.4870   -2.5700    5.7650 C   0  0  0  0  0  3  0  0  0  0  0  0
    2.2670   -1.6270    6.7740 C   0  0  0  0  0  3  0  0  0  0  0  0
    3.3250   -1.1520    7.5550 C   0  0  0  0  0  0  0  0  0  0  0  0
    4.6050   -1.6490    7.3290 C   0  0  0  0  0  3  0  0  0  0  0  0
    4.8290   -2.5860    6.3130 C   0  0  0  0  0  3  0  0  0  0  0  0
    5.2030   -6.4960    0.8290 C   0  0  0  0  0  0  0  0  0  0  0  0
    4.8500   -7.5520    1.6830 C   0  0  0  0  0  3  0  0  0  0  0  0
    4.3880   -7.3350    2.9880 C   0  0  0  0  0  3  0  0  0  0  0  0
    4.2860   -6.0080    3.4280 C   0  0  0  0  0  0  0  0  0  0  0  0
    4.6360   -4.9370    2.6100 C   0  0  0  0  0  0  0  0  0  0  0  0
    5.0930   -5.1740    1.3040 C   0  0  0  0  0  3  0  0  0  0  0  0
    4.4600   -3.7460    3.2670 N   0  0  0  0  0  0  0  0  0  0  0  0
    4.0430   -4.0480    4.4810 C   0  0  0  0  0  0  0  0  0  0  0  0
    3.8650   -5.4190    4.6040 N   0  0  0  0  0  0  0  0  0  0  0  0
    3.2760   -6.1070    5.7510 C   0  0  0  0  0  3  0  0  0  0  0  0
    3.8770   -5.6650    7.0970 C   0  0  0  0  0  2  0  0  0  0  0  0
    3.2680   -6.4490    8.2590 C   0  0  0  0  0  2  0  0  0  0  0  0
    1.7450   -6.3620    8.2600 C   0  0  0  0  0  2  0  0  0  0  0  0
    1.1520   -6.8170    6.9290 C   0  0  0  0  0  2  0  0  0  0  0  0
    1.7410   -6.0400    5.7550 C   0  0  0  0  0  2  0  0  0  0  0  0
    6.4160   -5.8790   -1.1240 O   0  0  0  0  0  0  0  0  0  0  0  0
    5.6940   -6.7730   -0.5790 C   0  0  0  0  0  0  0  0  0  0  0  0
    5.3510   -7.8750   -1.1110 O   0  0  0  0  0  1  0  0  0  0  0  0
    2.9540   -0.2660    8.5230 O   0  0  0  0  0  0  0  0  0  0  0  0
    3.3100   -0.4360    9.9090 C   0  0  1  0  0  3  0  0  0  0  0  0
    3.2610   -1.8820   10.4220 C   0  0  0  0  0  0  0  0  0  0  0  0
    4.4110   -2.5820   10.8230 C   0  0  0  0  0  3  0  0  0  0  0  0
    4.3310   -3.9080   11.2600 C   0  0  0  0  0  3  0  0  0  0  0  0
    3.1030   -4.5600   11.2810 C   0  0  0  0  0  0  0  0  0  0  0  0
    3.0060   -6.1940   11.8110 Cl  0  0  0  0  0  0  0  0  0  0  0  0
    1.9520   -3.8990   10.8650 C   0  0  0  0  0  3  0  0  0  0  0  0
    2.0330   -2.5730   10.4310 C   0  0  0  0  0  3  0  0  0  0  0  0
    4.4630    0.4650   10.3700 C   0  0  0  0  0  0  0  0  0  0  0  0
    4.1900    1.4820   11.3050 C   0  0  0  0  0  3  0  0  0  0  0  0
    5.2010    2.3310   11.7610 C   0  0  0  0  0  3  0  0  0  0  0  0
    6.4990    2.1760   11.2860 C   0  0  0  0  0  0  0  0  0  0  0  0
    7.7480    3.2170   11.8510 Cl  0  0  0  0  0  0  0  0  0  0  0  0
    6.7940    1.1830   10.3560 C   0  0  0  0  0  3  0  0  0  0  0  0
    5.7810    0.3340    9.8990 C   0  0  0  0  0  3  0  0  0  0  0  0
  1  2  2  0  0  0  0
  1  6  1  0  0  0  0
  2  3  1  0  0  0  0
  3  4  2  0  0  0  0
  4 25  1  0  0  0  0
  5  4  1  0  0  0  0
  6  5  2  0  0  0  0
  7 12  2  0  0  0  0
  7  8  1  0  0  0  0
  8  9  2  0  0  0  0
  9 10  1  0  0  0  0
 10 15  1  0  0  0  0
 11 13  1  0  0  0  0
 11 10  2  0  0  0  0
 12 11  1  0  0  0  0
 13 14  2  0  0  0  0
 14 15  1  0  0  0  0
 14  1  1  0  0  0  0
 15 16  1  0  0  0  0
 16 21  1  0  0  0  0
 16 17  1  0  0  0  0
 17 18  1  0  0  0  0
 18 19  1  0  0  0  0
 20 19  1  0  0  0  0
 21 20  1  0  0  0  0
 22 23  2  0  0  0  0
 23  7  1  0  0  0  0
 24 23  1  0  0  0  0
 26 25  1  6  0  0  0
 26 34  1  0  0  0  0
 26 27  1  0  0  0  0
 27 33  2  0  0  0  0
 27 28  1  0  0  0  0
 28 29  2  0  0  0  0
 29 30  1  0  0  0  0
 30 31  1  0  0  0  0
 32 30  2  0  0  0  0
 33 32  1  0  0  0  0
 34 35  1  0  0  0  0
 35 36  2  0  0  0  0
 37 36  1  0  0  0  0
 37 38  1  0  0  0  0
 39 37  2  0  0  0  0
 40 39  1  0  0  0  0
 40 34  2  0  0  0  0
M  END
>  <minimizedAffinity>
-9.51228905

$$$$

 OpenBabel09122223093D

 40 45  0  0  1  0  0  0  0  0999 V2000
    4.8000   -7.4330    1.8680 C   0  0  0  0  0  0  0  0  0  0  0  0
    4.1080   -7.9870    0.7890 C   0  0  0  0  0  3  0  0  0  0  0  0
    3.1270   -8.9610    1.0050 C   0  0  0  0  0  3  0  0  0  0  0  0
    2.8330   -9.4090    2.2950 C   0  0  0  0  0  0  0  0  0  0  0  0
    3.5480   -8.8860    3.3690 C   0  0  0  0  0  3  0  0  0  0  0  0
    4.5240   -7.9060    3.1570 C   0  0  0  0  0  3  0  0  0  0  0  0
    9.3550   -3.8280    0.4070 C   0  0  0  0  0  0  0  0  0  0  0  0
    8.8060   -2.9770    1.3770 C   0  0  0  0  0  3  0  0  0  0  0  0
    7.6670   -3.3230    2.1160 C   0  0  0  0  0  3  0  0  0  0  0  0
    7.0780   -4.5680    1.8560 C   0  0  0  0  0  0  0  0  0  0  0  0
    7.5920   -5.4340    0.8950 C   0  0  0  0  0  0  0  0  0  0  0  0
    8.7360   -5.0710    0.1670 C   0  0  0  0  0  3  0  0  0  0  0  0
    6.8400   -6.5780    0.8190 N   0  0  0  0  0  0  0  0  0  0  0  0
    5.8520   -6.4320    1.6800 C   0  0  0  0  0  0  0  0  0  0  0  0
    5.9930   -5.2430    2.3820 N   0  0  0  0  0  0  0  0  0  0  0  0
    5.1760   -4.8140    3.5140 C   0  0  0  0  0  3  0  0  0  0  0  0
    5.9650   -4.0070    4.5600 C   0  0  0  0  0  2  0  0  0  0  0  0
    5.0810   -3.6280    5.7480 C   0  0  0  0  0  2  0  0  0  0  0  0
    3.8180   -2.8990    5.3010 C   0  0  0  0  0  2  0  0  0  0  0  0
    3.0300   -3.7110    4.2760 C   0  0  0  0  0  2  0  0  0  0  0  0
    3.8920   -4.0920    3.0760 C   0  0  0  0  0  2  0  0  0  0  0  0
   10.4650   -2.4550   -1.1900 O   0  0  0  0  0  0  0  0  0  0  0  0
   10.5920   -3.4180   -0.3680 C   0  0  0  0  0  0  0  0  0  0  0  0
   11.6640   -4.0620   -0.1420 O   0  0  0  0  0  1  0  0  0  0  0  0
    1.8810  -10.3850    2.3470 O   0  0  0  0  0  0  0  0  0  0  0  0
    2.2110  -11.7840    2.4530 C   0  0  1  0  0  3  0  0  0  0  0  0
    2.2300  -12.5520    1.1250 C   0  0  0  0  0  0  0  0  0  0  0  0
    2.2540  -11.9070   -0.1220 C   0  0  0  0  0  3  0  0  0  0  0  0
    2.2430  -12.6400   -1.3140 C   0  0  0  0  0  3  0  0  0  0  0  0
    2.1860  -14.0290   -1.2740 C   0  0  0  0  0  0  0  0  0  0  0  0
    2.1660  -14.9300   -2.7390 Cl  0  0  0  0  0  0  0  0  0  0  0  0
    2.1350  -14.6930   -0.0530 C   0  0  0  0  0  3  0  0  0  0  0  0
    2.1480  -13.9590    1.1360 C   0  0  0  0  0  3  0  0  0  0  0  0
    3.3010  -12.0890    3.4900 C   0  0  0  0  0  0  0  0  0  0  0  0
    2.9430  -12.1200    4.8520 C   0  0  0  0  0  3  0  0  0  0  0  0
    3.8930  -12.3930    5.8390 C   0  0  0  0  0  3  0  0  0  0  0  0
    5.2140  -12.6360    5.4780 C   0  0  0  0  0  0  0  0  0  0  0  0
    6.3840  -12.9800    6.6920 Cl  0  0  0  0  0  0  0  0  0  0  0  0
    5.5940  -12.6040    4.1390 C   0  0  0  0  0  3  0  0  0  0  0  0
    4.6440  -12.3300    3.1510 C   0  0  0  0  0  3  0  0  0  0  0  0
  1  6  1  0  0  0  0
  2  3  1  0  0  0  0
  2  1  2  0  0  0  0
  3  4  2  0  0  0  0
  4 25  1  0  0  0  0
  4  5  1  0  0  0  0
  6  5  2  0  0  0  0
  7  8  1  0  0  0  0
  8  9  2  0  0  0  0
 10  9  1  0  0  0  0
 10 15  1  0  0  0  0
 11 10  2  0  0  0  0
 12  7  2  0  0  0  0
 12 11  1  0  0  0  0
 13 11  1  0  0  0  0
 13 14  2  0  0  0  0
 14  1  1  0  0  0  0
 14 15  1  0  0  0  0
 15 16  1  0  0  0  0
 16 17  1  0  0  0  0
 17 18  1  0  0  0  0
 19 18  1  0  0  0  0
 20 19  1  0  0  0  0
 21 16  1  0  0  0  0
 21 20  1  0  0  0  0
 22 23  2  0  0  0  0
 23 24  1  0  0  0  0
 23  7  1  0  0  0  0
 26 25  1  6  0  0  0
 26 34  1  0  0  0  0
 27 33  1  0  0  0  0
 27 26  1  0  0  0  0
 28 27  2  0  0  0  0
 29 30  2  0  0  0  0
 29 28  1  0  0  0  0
 30 32  1  0  0  0  0
 31 30  1  0  0  0  0
 32 33  2  0  0  0  0
 34 35  1  0  0  0  0
 35 36  2  0  0  0  0
 37 36  1  0  0  0  0
 37 38  1  0  0  0  0
 39 37  2  0  0  0  0
 40 34  2  0  0  0  0
 40 39  1  0  0  0  0
M  END
>  <minimizedAffinity>
-9.27088356

$$$$

 OpenBabel09122223093D

 40 45  0  0  1  0  0  0  0  0999 V2000
    4.4250   -8.8640    3.2050 C   0  0  0  0  0  0  0  0  0  0  0  0
    5.2100   -9.6280    4.0730 C   0  0  0  0  0  3  0  0  0  0  0  0
    5.4270  -10.9860    3.8170 C   0  0  0  0  0  3  0  0  0  0  0  0
    4.8530  -11.6070    2.7040 C   0  0  0  0  0  0  0  0  0  0  0  0
    4.0390  -10.8580    1.8600 C   0  0  0  0  0  3  0  0  0  0  0  0
    3.8280   -9.4970    2.1080 C   0  0  0  0  0  3  0  0  0  0  0  0
    2.8570   -3.3460    4.9280 C   0  0  0  0  0  0  0  0  0  0  0  0
    3.7510   -2.9350    3.9280 C   0  0  0  0  0  3  0  0  0  0  0  0
    4.4460   -3.8480    3.1240 C   0  0  0  0  0  3  0  0  0  0  0  0
    4.2200   -5.2130    3.3500 C   0  0  0  0  0  0  0  0  0  0  0  0
    3.3470   -5.6570    4.3390 C   0  0  0  0  0  0  0  0  0  0  0  0
    2.6570   -4.7260    5.1320 C   0  0  0  0  0  3  0  0  0  0  0  0
    3.3040   -7.0270    4.3710 N   0  0  0  0  0  0  0  0  0  0  0  0
    4.1530   -7.4480    3.4540 C   0  0  0  0  0  0  0  0  0  0  0  0
    4.6910   -6.3710    2.7620 N   0  0  0  0  0  0  0  0  0  0  0  0
    5.5510   -6.4530    1.5840 C   0  0  0  0  0  3  0  0  0  0  0  0
    4.7810   -6.3060    0.2600 C   0  0  0  0  0  2  0  0  0  0  0  0
    5.7150   -6.4520   -0.9420 C   0  0  0  0  0  2  0  0  0  0  0  0
    6.8940   -5.4880   -0.8590 C   0  0  0  0  0  2  0  0  0  0  0  0
    7.6650   -5.6490    0.4490 C   0  0  0  0  0  2  0  0  0  0  0  0
    6.7520   -5.4980    1.6630 C   0  0  0  0  0  2  0  0  0  0  0  0
    2.3550   -2.3360    7.0250 O   0  0  0  0  0  1  0  0  0  0  0  0
    2.1220   -2.3250    5.7740 C   0  0  0  0  0  0  0  0  0  0  0  0
    1.3270   -1.5340    5.1750 O   0  0  0  0  0  0  0  0  0  0  0  0
    5.1220  -12.9410    2.6050 O   0  0  0  0  0  0  0  0  0  0  0  0
    4.0920  -13.9470    2.6680 C   0  0  1  0  0  3  0  0  0  0  0  0
    3.1080  -13.8010    3.8360 C   0  0  0  0  0  0  0  0  0  0  0  0
    1.8700  -13.1500    3.7060 C   0  0  0  0  0  3  0  0  0  0  0  0
    1.0100  -13.0120    4.8010 C   0  0  0  0  0  3  0  0  0  0  0  0
    1.3850  -13.5040    6.0460 C   0  0  0  0  0  0  0  0  0  0  0  0
    0.3310  -13.3290    7.3930 Cl  0  0  0  0  0  0  0  0  0  0  0  0
    2.6170  -14.1310    6.2090 C   0  0  0  0  0  3  0  0  0  0  0  0
    3.4740  -14.2700    5.1140 C   0  0  0  0  0  3  0  0  0  0  0  0
    3.5420  -14.3600    1.2960 C   0  0  0  0  0  0  0  0  0  0  0  0
    4.2450  -13.9610    0.1430 C   0  0  0  0  0  3  0  0  0  0  0  0
    3.7930  -14.3100   -1.1320 C   0  0  0  0  0  3  0  0  0  0  0  0
    2.6290  -15.0600   -1.2710 C   0  0  0  0  0  0  0  0  0  0  0  0
    2.0740  -15.4960   -2.8400 Cl  0  0  0  0  0  0  0  0  0  0  0  0
    1.9120  -15.4600   -0.1470 C   0  0  0  0  0  3  0  0  0  0  0  0
    2.3650  -15.1100    1.1290 C   0  0  0  0  0  3  0  0  0  0  0  0
  1 14  1  0  0  0  0
  1  2  1  0  0  0  0
  3  2  2  0  0  0  0
  4  3  1  0  0  0  0
  5  6  1  0  0  0  0
  5  4  2  0  0  0  0
  6  1  2  0  0  0  0
  7 12  1  0  0  0  0
  7 23  1  0  0  0  0
  8  7  2  0  0  0  0
  9 10  2  0  0  0  0
  9  8  1  0  0  0  0
 10 11  1  0  0  0  0
 11 13  1  0  0  0  0
 11 12  2  0  0  0  0
 14 13  2  0  0  0  0
 15 10  1  0  0  0  0
 15 14  1  0  0  0  0
 16 21  1  0  0  0  0
 16 15  1  0  0  0  0
 17 16  1  0  0  0  0
 18 19  1  0  0  0  0
 18 17  1  0  0  0  0
 19 20  1  0  0  0  0
 20 21  1  0  0  0  0
 23 22  1  0  0  0  0
 24 23  2  0  0  0  0
 25  4  1  0  0  0  0
 26 25  1  6  0  0  0
 26 27  1  0  0  0  0
 27 33  1  0  0  0  0
 28 27  2  0  0  0  0
 28 29  1  0  0  0  0
 29 30  2  0  0  0  0
 30 32  1  0  0  0  0
 30 31  1  0  0  0  0
 33 32  2  0  0  0  0
 34 26  1  0  0  0  0
 35 34  2  0  0  0  0
 36 35  1  0  0  0  0
 37 36  2  0  0  0  0
 37 39  1  0  0  0  0
 38 37  1  0  0  0  0
 39 40  2  0  0  0  0
 40 34  1  0  0  0  0
M  END
>  <minimizedAffinity>
-9.14891148

$$$$

 OpenBabel09122223093D

 40 45  0  0  1  0  0  0  0  0999 V2000
    5.6610   -7.3150    1.5820 C   0  0  0  0  0  0  0  0  0  0  0  0
    4.5560   -7.4880    0.7430 C   0  0  0  0  0  3  0  0  0  0  0  0
    3.7180   -8.5970    0.9000 C   0  0  0  0  0  3  0  0  0  0  0  0
    3.9760   -9.5570    1.8830 C   0  0  0  0  0  0  0  0  0  0  0  0
    5.0970   -9.4070    2.6940 C   0  0  0  0  0  3  0  0  0  0  0  0
    5.9320   -8.2940    2.5450 C   0  0  0  0  0  3  0  0  0  0  0  0
    9.7240   -3.1170    0.2630 C   0  0  0  0  0  0  0  0  0  0  0  0
    9.0590   -2.3670    1.2450 C   0  0  0  0  0  3  0  0  0  0  0  0
    7.9670   -2.8750    1.9600 C   0  0  0  0  0  3  0  0  0  0  0  0
    7.5470   -4.1790    1.6640 C   0  0  0  0  0  0  0  0  0  0  0  0
    8.1790   -4.9480    0.6910 C   0  0  0  0  0  0  0  0  0  0  0  0
    9.2740   -4.4230   -0.0130 C   0  0  0  0  0  3  0  0  0  0  0  0
    7.5830   -6.1780    0.5790 N   0  0  0  0  0  0  0  0  0  0  0  0
    6.5760   -6.1820    1.4310 C   0  0  0  0  0  0  0  0  0  0  0  0
    6.5540   -5.0020    2.1600 N   0  0  0  0  0  0  0  0  0  0  0  0
    5.6760   -4.7100    3.2910 C   0  0  0  0  0  3  0  0  0  0  0  0
    6.3230   -3.7860    4.3380 C   0  0  0  0  0  2  0  0  0  0  0  0
    5.3880   -3.5540    5.5250 C   0  0  0  0  0  2  0  0  0  0  0  0
    4.0250   -3.0370    5.0750 C   0  0  0  0  0  2  0  0  0  0  0  0
    3.3790   -3.9650    4.0480 C   0  0  0  0  0  2  0  0  0  0  0  0
    4.2940   -4.2030    2.8500 C   0  0  0  0  0  2  0  0  0  0  0  0
   12.0660   -2.8670   -0.0860 O   0  0  0  0  0  1  0  0  0  0  0  0
   10.9060   -2.5310   -0.4860 C   0  0  0  0  0  0  0  0  0  0  0  0
   10.6540   -1.7500   -1.4560 O   0  0  0  0  0  0  0  0  0  0  0  0
    3.0960  -10.5990    1.8930 O   0  0  0  0  0  0  0  0  0  0  0  0
    3.5230  -11.9750    1.9310 C   0  0  1  0  0  3  0  0  0  0  0  0
    3.3870  -12.6630    3.2960 C   0  0  0  0  0  0  0  0  0  0  0  0
    2.1420  -13.0090    3.8480 C   0  0  0  0  0  3  0  0  0  0  0  0
    2.0560  -13.6100    5.1090 C   0  0  0  0  0  3  0  0  0  0  0  0
    3.2110  -13.8550    5.8430 C   0  0  0  0  0  0  0  0  0  0  0  0
    3.1040  -14.5890    7.3950 Cl  0  0  0  0  0  0  0  0  0  0  0  0
    4.4550  -13.5000    5.3300 C   0  0  0  0  0  3  0  0  0  0  0  0
    4.5400  -12.9010    4.0710 C   0  0  0  0  0  3  0  0  0  0  0  0
    3.1620  -12.7730    0.6710 C   0  0  0  0  0  0  0  0  0  0  0  0
    3.5480  -14.1250    0.5980 C   0  0  0  0  0  3  0  0  0  0  0  0
    3.2450  -14.9010   -0.5240 C   0  0  0  0  0  3  0  0  0  0  0  0
    2.5540  -14.3330   -1.5900 C   0  0  0  0  0  0  0  0  0  0  0  0
    2.1740  -15.2870   -2.9700 Cl  0  0  0  0  0  0  0  0  0  0  0  0
    2.1680  -12.9960   -1.5450 C   0  0  0  0  0  3  0  0  0  0  0  0
    2.4720  -12.2200   -0.4220 C   0  0  0  0  0  3  0  0  0  0  0  0
  1  6  1  0  0  0  0
  2  3  1  0  0  0  0
  2  1  2  0  0  0  0
  3  4  2  0  0  0  0
  4 25  1  0  0  0  0
  4  5  1  0  0  0  0
  6  5  2  0  0  0  0
  7  8  1  0  0  0  0
  8  9  2  0  0  0  0
 10  9  1  0  0  0  0
 10 15  1  0  0  0  0
 11 10  2  0  0  0  0
 12  7  2  0  0  0  0
 12 11  1  0  0  0  0
 13 11  1  0  0  0  0
 13 14  2  0  0  0  0
 14  1  1  0  0  0  0
 14 15  1  0  0  0  0
 15 16  1  0  0  0  0
 16 17  1  0  0  0  0
 17 18  1  0  0  0  0
 19 18  1  0  0  0  0
 20 19  1  0  0  0  0
 21 16  1  0  0  0  0
 21 20  1  0  0  0  0
 23 22  1  0  0  0  0
 23  7  1  0  0  0  0
 24 23  2  0  0  0  0
 26 25  1  1  0  0  0
 26 27  1  0  0  0  0
 27 28  2  0  0  0  0
 27 33  1  0  0  0  0
 28 29  1  0  0  0  0
 29 30  2  0  0  0  0
 30 31  1  0  0  0  0
 32 30  1  0  0  0  0
 33 32  2  0  0  0  0
 34 26  1  0  0  0  0
 35 34  1  0  0  0  0
 36 35  2  0  0  0  0
 37 39  2  0  0  0  0
 37 36  1  0  0  0  0
 38 37  1  0  0  0  0
 39 40  1  0  0  0  0
 40 34  2  0  0  0  0
M  END
>  <minimizedAffinity>
-8.69865513

$$$$

 OpenBabel09122223093D

 40 45  0  0  1  0  0  0  0  0999 V2000
    4.8790   -7.0720    2.1780 C   0  0  0  0  0  0  0  0  0  0  0  0
    4.4110   -6.1490    3.1170 C   0  0  0  0  0  3  0  0  0  0  0  0
    5.0810   -4.9370    3.3100 C   0  0  0  0  0  3  0  0  0  0  0  0
    6.2350   -4.6310    2.5830 C   0  0  0  0  0  0  0  0  0  0  0  0
    6.7250   -5.5650    1.6750 C   0  0  0  0  0  3  0  0  0  0  0  0
    6.0520   -6.7760    1.4740 C   0  0  0  0  0  3  0  0  0  0  0  0
    2.4810  -12.2950    0.4890 C   0  0  0  0  0  0  0  0  0  0  0  0
    2.2130  -12.4500    1.8570 C   0  0  0  0  0  3  0  0  0  0  0  0
    2.5510  -11.4720    2.8010 C   0  0  0  0  0  3  0  0  0  0  0  0
    3.1770  -10.3080    2.3340 C   0  0  0  0  0  0  0  0  0  0  0  0
    3.4650  -10.1240    0.9840 C   0  0  0  0  0  0  0  0  0  0  0  0
    3.1160  -11.1140    0.0530 C   0  0  0  0  0  3  0  0  0  0  0  0
    4.0850   -8.9180    0.7800 N   0  0  0  0  0  0  0  0  0  0  0  0
    4.2210   -8.3630    1.9680 C   0  0  0  0  0  0  0  0  0  0  0  0
    3.6250   -9.1520    2.9420 N   0  0  0  0  0  0  0  0  0  0  0  0
    3.4480   -8.7910    4.3470 C   0  0  0  0  0  3  0  0  0  0  0  0
    1.9850   -8.4860    4.7160 C   0  0  0  0  0  2  0  0  0  0  0  0
    1.8600   -8.0630    6.1790 C   0  0  0  0  0  2  0  0  0  0  0  0
    2.4810   -9.0930    7.1180 C   0  0  0  0  0  2  0  0  0  0  0  0
    3.9370   -9.3800    6.7590 C   0  0  0  0  0  2  0  0  0  0  0  0
    4.0840   -9.8130    5.3030 C   0  0  0  0  0  2  0  0  0  0  0  0
    2.0190  -13.0360   -1.7250 O   0  0  0  0  0  0  0  0  0  0  0  0
    2.0950  -13.3760   -0.5020 C   0  0  0  0  0  0  0  0  0  0  0  0
    1.8760  -14.5400   -0.0400 O   0  0  0  0  0  1  0  0  0  0  0  0
    6.7990   -3.4320    2.9040 O   0  0  0  0  0  0  0  0  0  0  0  0
    8.2240   -3.2490    3.0150 C   0  0  1  0  0  3  0  0  0  0  0  0
    8.8870   -2.5490    1.8220 C   0  0  0  0  0  0  0  0  0  0  0  0
    9.5760   -3.2510    0.8190 C   0  0  0  0  0  3  0  0  0  0  0  0
   10.1920   -2.5750   -0.2400 C   0  0  0  0  0  3  0  0  0  0  0  0
   10.1440   -1.1870   -0.3000 C   0  0  0  0  0  0  0  0  0  0  0  0
   10.9070   -0.3560   -1.5990 Cl  0  0  0  0  0  0  0  0  0  0  0  0
    9.4900   -0.4650    0.6930 C   0  0  0  0  0  3  0  0  0  0  0  0
    8.8740   -1.1410    1.7500 C   0  0  0  0  0  3  0  0  0  0  0  0
    8.6960   -2.8880    4.4300 C   0  0  0  0  0  0  0  0  0  0  0  0
   10.0640   -2.6270    4.6360 C   0  0  0  0  0  3  0  0  0  0  0  0
   10.5500   -2.2920    5.9030 C   0  0  0  0  0  3  0  0  0  0  0  0
    9.6740   -2.2170    6.9810 C   0  0  0  0  0  0  0  0  0  0  0  0
   10.2680   -1.7980    8.5400 Cl  0  0  0  0  0  0  0  0  0  0  0  0
    8.3180   -2.4780    6.8040 C   0  0  0  0  0  3  0  0  0  0  0  0
    7.8320   -2.8130    5.5360 C   0  0  0  0  0  3  0  0  0  0  0  0
  1  2  1  0  0  0  0
  2  3  2  0  0  0  0
  4 25  1  0  0  0  0
  4  3  1  0  0  0  0
  5  4  2  0  0  0  0
  6  5  1  0  0  0  0
  6  1  2  0  0  0  0
  7  8  1  0  0  0  0
  8  9  2  0  0  0  0
 10  9  1  0  0  0  0
 10 15  1  0  0  0  0
 11 10  2  0  0  0  0
 12  7  2  0  0  0  0
 12 11  1  0  0  0  0
 13 11  1  0  0  0  0
 13 14  2  0  0  0  0
 14  1  1  0  0  0  0
 14 15  1  0  0  0  0
 15 16  1  0  0  0  0
 16 17  1  0  0  0  0
 16 21  1  0  0  0  0
 17 18  1  0  0  0  0
 18 19  1  0  0  0  0
 20 19  1  0  0  0  0
 21 20  1  0  0  0  0
 22 23  2  0  0  0  0
 23 24  1  0  0  0  0
 23  7  1  0  0  0  0
 26 25  1  1  0  0  0
 26 34  1  0  0  0  0
 27 26  1  0  0  0  0
 28 27  2  0  0  0  0
 29 28  1  0  0  0  0
 30 29  2  0  0  0  0
 30 32  1  0  0  0  0
 31 30  1  0  0  0  0
 32 33  2  0  0  0  0
 33 27  1  0  0  0  0
 34 35  2  0  0  0  0
 34 40  1  0  0  0  0
 35 36  1  0  0  0  0
 36 37  2  0  0  0  0
 37 38  1  0  0  0  0
 39 37  1  0  0  0  0
 40 39  2  0  0  0  0
M  END
>  <minimizedAffinity>
-8.63222504

$$$$

 OpenBabel09122223093D

 40 45  0  0  1  0  0  0  0  0999 V2000
    4.4220   -9.8810    4.2140 C   0  0  0  0  0  0  0  0  0  0  0  0
    3.5900   -8.7590    4.2260 C   0  0  0  0  0  3  0  0  0  0  0  0
    3.9490   -7.6060    3.5200 C   0  0  0  0  0  3  0  0  0  0  0  0
    5.1490   -7.5480    2.8060 C   0  0  0  0  0  0  0  0  0  0  0  0
    5.9980   -8.6500    2.8240 C   0  0  0  0  0  3  0  0  0  0  0  0
    5.6370   -9.8080    3.5230 C   0  0  0  0  0  3  0  0  0  0  0  0
    3.2860  -14.3830    7.9990 C   0  0  0  0  0  0  0  0  0  0  0  0
    2.7690  -15.0200    6.8610 C   0  0  0  0  0  3  0  0  0  0  0  0
    2.7840  -14.4180    5.5960 C   0  0  0  0  0  3  0  0  0  0  0  0
    3.3400  -13.1350    5.4950 C   0  0  0  0  0  0  0  0  0  0  0  0
    3.8550  -12.4710    6.6040 C   0  0  0  0  0  0  0  0  0  0  0  0
    3.8350  -13.0920    7.8630 C   0  0  0  0  0  3  0  0  0  0  0  0
    4.3300  -11.2330    6.2530 N   0  0  0  0  0  0  0  0  0  0  0  0
    4.0940  -11.0960    4.9630 C   0  0  0  0  0  0  0  0  0  0  0  0
    3.5440  -12.2600    4.4450 N   0  0  0  0  0  0  0  0  0  0  0  0
    3.2870  -12.5310    3.0330 C   0  0  0  0  0  3  0  0  0  0  0  0
    2.3850  -11.4780    2.3660 C   0  0  0  0  0  2  0  0  0  0  0  0
    2.1040  -11.8340    0.9070 C   0  0  0  0  0  2  0  0  0  0  0  0
    3.3930  -12.0560    0.1220 C   0  0  0  0  0  2  0  0  0  0  0  0
    4.2770  -13.1150    0.7780 C   0  0  0  0  0  2  0  0  0  0  0  0
    4.5790  -12.7740    2.2350 C   0  0  0  0  0  2  0  0  0  0  0  0
    4.3550  -15.1380    9.9880 O   0  0  0  0  0  1  0  0  0  0  0  0
    3.2560  -15.0720    9.3500 C   0  0  0  0  0  0  0  0  0  0  0  0
    2.1390  -15.5310    9.7460 O   0  0  0  0  0  0  0  0  0  0  0  0
    5.3820   -6.3490    2.1990 O   0  0  0  0  0  0  0  0  0  0  0  0
    6.0820   -5.2710    2.8520 C   0  0  1  0  0  3  0  0  0  0  0  0
    7.2230   -4.6470    2.0380 C   0  0  0  0  0  0  0  0  0  0  0  0
    7.8880   -3.4770    2.4400 C   0  0  0  0  0  3  0  0  0  0  0  0
    8.9060   -2.9210    1.6580 C   0  0  0  0  0  3  0  0  0  0  0  0
    9.2590   -3.5170    0.4520 C   0  0  0  0  0  0  0  0  0  0  0  0
   10.5060   -2.8290   -0.5130 Cl  0  0  0  0  0  0  0  0  0  0  0  0
    8.6000   -4.6620    0.0170 C   0  0  0  0  0  3  0  0  0  0  0  0
    7.5850   -5.2170    0.8000 C   0  0  0  0  0  3  0  0  0  0  0  0
    5.1720   -4.3430    3.6670 C   0  0  0  0  0  0  0  0  0  0  0  0
    5.5290   -4.0510    4.9980 C   0  0  0  0  0  3  0  0  0  0  0  0
    4.7390   -3.2110    5.7870 C   0  0  0  0  0  3  0  0  0  0  0  0
    3.5800   -2.6540    5.2560 C   0  0  0  0  0  0  0  0  0  0  0  0
    2.6090   -1.6150    6.2240 Cl  0  0  0  0  0  0  0  0  0  0  0  0
    3.2010   -2.9340    3.9460 C   0  0  0  0  0  3  0  0  0  0  0  0
    3.9920   -3.7750    3.1570 C   0  0  0  0  0  3  0  0  0  0  0  0
  1  2  1  0  0  0  0
  1 14  1  0  0  0  0
  3  2  2  0  0  0  0
  4  5  2  0  0  0  0
  4  3  1  0  0  0  0
  5  6  1  0  0  0  0
  6  1  2  0  0  0  0
  7 23  1  0  0  0  0
  8  7  2  0  0  0  0
  9  8  1  0  0  0  0
 10  9  2  0  0  0  0
 10 11  1  0  0  0  0
 11 12  2  0  0  0  0
 12  7  1  0  0  0  0
 13 11  1  0  0  0  0
 14 13  2  0  0  0  0
 15 14  1  0  0  0  0
 15 10  1  0  0  0  0
 16 15  1  0  0  0  0
 17 16  1  0  0  0  0
 18 17  1  0  0  0  0
 19 20  1  0  0  0  0
 19 18  1  0  0  0  0
 20 21  1  0  0  0  0
 21 16  1  0  0  0  0
 23 24  2  0  0  0  0
 23 22  1  0  0  0  0
 25  4  1  0  0  0  0
 26 25  1  6  0  0  0
 26 34  1  0  0  0  0
 27 28  1  0  0  0  0
 27 26  1  0  0  0  0
 29 28  2  0  0  0  0
 30 29  1  0  0  0  0
 31 30  1  0  0  0  0
 32 30  2  0  0  0  0
 32 33  1  0  0  0  0
 33 27  2  0  0  0  0
 34 35  1  0  0  0  0
 35 36  2  0  0  0  0
 37 36  1  0  0  0  0
 37 38  1  0  0  0  0
 39 37  2  0  0  0  0
 40 34  2  0  0  0  0
 40 39  1  0  0  0  0
M  END
>  <minimizedAffinity>
-8.53059959

$$$$

 OpenBabel09122223093D

 40 45  0  0  1  0  0  0  0  0999 V2000
    4.3250   -9.7920    2.9900 C   0  0  0  0  0  0  0  0  0  0  0  0
    3.4920   -8.8100    2.4490 C   0  0  0  0  0  3  0  0  0  0  0  0
    4.0340   -7.6190    1.9530 C   0  0  0  0  0  3  0  0  0  0  0  0
    5.4110   -7.3830    2.0040 C   0  0  0  0  0  0  0  0  0  0  0  0
    6.2390   -8.3430    2.5780 C   0  0  0  0  0  3  0  0  0  0  0  0
    5.6990   -9.5390    3.0670 C   0  0  0  0  0  3  0  0  0  0  0  0
    2.2190  -14.4970    6.0410 C   0  0  0  0  0  0  0  0  0  0  0  0
    1.9200  -15.0070    4.7690 C   0  0  0  0  0  3  0  0  0  0  0  0
    2.2250  -14.3090    3.5930 C   0  0  0  0  0  3  0  0  0  0  0  0
    2.8500  -13.0610    3.7240 C   0  0  0  0  0  0  0  0  0  0  0  0
    3.1530  -12.5210    4.9700 C   0  0  0  0  0  0  0  0  0  0  0  0
    2.8430  -13.2370    6.1370 C   0  0  0  0  0  3  0  0  0  0  0  0
    3.7480  -11.2930    4.8370 N   0  0  0  0  0  0  0  0  0  0  0  0
    3.7910  -11.0380    3.5440 C   0  0  0  0  0  0  0  0  0  0  0  0
    3.3080  -12.1200    2.8210 N   0  0  0  0  0  0  0  0  0  0  0  0
    3.3380  -12.2620    1.3670 C   0  0  0  0  0  3  0  0  0  0  0  0
    4.3490  -13.3150    0.8810 C   0  0  0  0  0  2  0  0  0  0  0  0
    4.3820  -13.3880   -0.6450 C   0  0  0  0  0  2  0  0  0  0  0  0
    2.9910  -13.6240   -1.2270 C   0  0  0  0  0  2  0  0  0  0  0  0
    1.9950  -12.5670   -0.7560 C   0  0  0  0  0  2  0  0  0  0  0  0
    1.9400  -12.4840    0.7670 C   0  0  0  0  0  2  0  0  0  0  0  0
    0.6650  -15.6510    7.4270 O   0  0  0  0  0  0  0  0  0  0  0  0
    1.8760  -15.2870    7.2890 C   0  0  0  0  0  0  0  0  0  0  0  0
    2.8200  -15.5280    8.1060 O   0  0  0  0  0  1  0  0  0  0  0  0
    5.7890   -6.1660    1.5180 O   0  0  0  0  0  0  0  0  0  0  0  0
    6.4740   -5.1870    2.3250 C   0  0  1  0  0  3  0  0  0  0  0  0
    7.5960   -4.4220    1.6110 C   0  0  0  0  0  0  0  0  0  0  0  0
    8.1540   -4.8560    0.3970 C   0  0  0  0  0  3  0  0  0  0  0  0
    9.1950   -4.1470   -0.2120 C   0  0  0  0  0  3  0  0  0  0  0  0
    9.7060   -3.0050    0.3950 C   0  0  0  0  0  0  0  0  0  0  0  0
   10.9900   -2.1380   -0.3500 Cl  0  0  0  0  0  0  0  0  0  0  0  0
    9.1890   -2.5670    1.6110 C   0  0  0  0  0  3  0  0  0  0  0  0
    8.1480   -3.2750    2.2160 C   0  0  0  0  0  3  0  0  0  0  0  0
    5.5520   -4.4130    3.2780 C   0  0  0  0  0  0  0  0  0  0  0  0
    4.2780   -4.0300    2.8170 C   0  0  0  0  0  3  0  0  0  0  0  0
    3.3970   -3.3250    3.6400 C   0  0  0  0  0  3  0  0  0  0  0  0
    3.7790   -2.9930    4.9360 C   0  0  0  0  0  0  0  0  0  0  0  0
    2.6920   -2.1310    5.9550 Cl  0  0  0  0  0  0  0  0  0  0  0  0
    5.0350   -3.3540    5.4130 C   0  0  0  0  0  3  0  0  0  0  0  0
    5.9180   -4.0580    4.5880 C   0  0  0  0  0  3  0  0  0  0  0  0
  1  6  1  0  0  0  0
  1 14  1  0  0  0  0
  2  1  2  0  0  0  0
  3  4  2  0  0  0  0
  3  2  1  0  0  0  0
  4  5  1  0  0  0  0
  5  6  2  0  0  0  0
  7 12  1  0  0  0  0
  7 23  1  0  0  0  0
  8  7  2  0  0  0  0
  9 10  2  0  0  0  0
  9  8  1  0  0  0  0
 10 11  1  0  0  0  0
 11 12  2  0  0  0  0
 13 11  1  0  0  0  0
 14 13  2  0  0  0  0
 15 14  1  0  0  0  0
 15 10  1  0  0  0  0
 16 15  1  0  0  0  0
 17 16  1  0  0  0  0
 18 17  1  0  0  0  0
 19 20  1  0  0  0  0
 19 18  1  0  0  0  0
 20 21  1  0  0  0  0
 21 16  1  0  0  0  0
 23 22  2  0  0  0  0
 23 24  1  0  0  0  0
 25  4  1  0  0  0  0
 26 25  1  6  0  0  0
 26 34  1  0  0  0  0
 27 33  1  0  0  0  0
 27 26  1  0  0  0  0
 28 27  2  0  0  0  0
 29 30  2  0  0  0  0
 29 28  1  0  0  0  0
 30 32  1  0  0  0  0
 31 30  1  0  0  0  0
 32 33  2  0  0  0  0
 34 40  1  0  0  0  0
 35 34  2  0  0  0  0
 35 36  1  0  0  0  0
 36 37  2  0  0  0  0
 37 39  1  0  0  0  0
 37 38  1  0  0  0  0
 40 39  2  0  0  0  0
M  END
>  <minimizedAffinity>
-8.52785015

$$$$
