
 OpenBabel09132204463D

 40 45  0  0  1  0  0  0  0  0999 V2000
    4.3250   -9.7920    2.9900 C   0  0  0  0  0  0  0  0  0  0  0  0
    3.4920   -8.8100    2.4490 C   0  0  0  0  0  3  0  0  0  0  0  0
    4.0340   -7.6190    1.9530 C   0  0  0  0  0  3  0  0  0  0  0  0
    5.4110   -7.3830    2.0040 C   0  0  0  0  0  0  0  0  0  0  0  0
    6.2390   -8.3430    2.5780 C   0  0  0  0  0  3  0  0  0  0  0  0
    5.6990   -9.5390    3.0670 C   0  0  0  0  0  3  0  0  0  0  0  0
    2.2190  -14.4970    6.0410 C   0  0  0  0  0  0  0  0  0  0  0  0
    1.9200  -15.0070    4.7690 C   0  0  0  0  0  3  0  0  0  0  0  0
    2.2250  -14.3090    3.5930 C   0  0  0  0  0  3  0  0  0  0  0  0
    2.8500  -13.0610    3.7240 C   0  0  0  0  0  0  0  0  0  0  0  0
    3.1530  -12.5210    4.9700 C   0  0  0  0  0  0  0  0  0  0  0  0
    2.8430  -13.2370    6.1370 C   0  0  0  0  0  3  0  0  0  0  0  0
    3.7480  -11.2930    4.8370 N   0  0  0  0  0  0  0  0  0  0  0  0
    3.7910  -11.0380    3.5440 C   0  0  0  0  0  0  0  0  0  0  0  0
    3.3080  -12.1200    2.8210 N   0  0  0  0  0  0  0  0  0  0  0  0
    3.3380  -12.2620    1.3670 C   0  0  0  0  0  3  0  0  0  0  0  0
    4.3490  -13.3150    0.8810 C   0  0  0  0  0  2  0  0  0  0  0  0
    4.3820  -13.3880   -0.6450 C   0  0  0  0  0  2  0  0  0  0  0  0
    2.9910  -13.6240   -1.2270 C   0  0  0  0  0  2  0  0  0  0  0  0
    1.9950  -12.5670   -0.7560 C   0  0  0  0  0  2  0  0  0  0  0  0
    1.9400  -12.4840    0.7670 C   0  0  0  0  0  2  0  0  0  0  0  0
    0.6650  -15.6510    7.4270 O   0  0  0  0  0  0  0  0  0  0  0  0
    1.8760  -15.2870    7.2890 C   0  0  0  0  0  0  0  0  0  0  0  0
    2.8200  -15.5280    8.1060 O   0  0  0  0  0  1  0  0  0  0  0  0
    5.7890   -6.1660    1.5180 O   0  0  0  0  0  0  0  0  0  0  0  0
    6.4740   -5.1870    2.3250 C   0  0  1  0  0  3  0  0  0  0  0  0
    7.5960   -4.4220    1.6110 C   0  0  0  0  0  0  0  0  0  0  0  0
    8.1540   -4.8560    0.3970 C   0  0  0  0  0  3  0  0  0  0  0  0
    9.1950   -4.1470   -0.2120 C   0  0  0  0  0  3  0  0  0  0  0  0
    9.7060   -3.0050    0.3950 C   0  0  0  0  0  0  0  0  0  0  0  0
   10.9900   -2.1380   -0.3500 Cl  0  0  0  0  0  0  0  0  0  0  0  0
    9.1890   -2.5670    1.6110 C   0  0  0  0  0  3  0  0  0  0  0  0
    8.1480   -3.2750    2.2160 C   0  0  0  0  0  3  0  0  0  0  0  0
    5.5520   -4.4130    3.2780 C   0  0  0  0  0  0  0  0  0  0  0  0
    4.2780   -4.0300    2.8170 C   0  0  0  0  0  3  0  0  0  0  0  0
    3.3970   -3.3250    3.6400 C   0  0  0  0  0  3  0  0  0  0  0  0
    3.7790   -2.9930    4.9360 C   0  0  0  0  0  0  0  0  0  0  0  0
    2.6920   -2.1310    5.9550 Cl  0  0  0  0  0  0  0  0  0  0  0  0
    5.0350   -3.3540    5.4130 C   0  0  0  0  0  3  0  0  0  0  0  0
    5.9180   -4.0580    4.5880 C   0  0  0  0  0  3  0  0  0  0  0  0
  1  6  1  0  0  0  0
  1 14  1  0  0  0  0
  2  1  2  0  0  0  0
  3  4  2  0  0  0  0
  3  2  1  0  0  0  0
  4  5  1  0  0  0  0
  5  6  2  0  0  0  0
  7 12  1  0  0  0  0
  7 23  1  0  0  0  0
  8  7  2  0  0  0  0
  9 10  2  0  0  0  0
  9  8  1  0  0  0  0
 10 11  1  0  0  0  0
 11 12  2  0  0  0  0
 13 11  1  0  0  0  0
 14 13  2  0  0  0  0
 15 14  1  0  0  0  0
 15 10  1  0  0  0  0
 16 15  1  0  0  0  0
 17 16  1  0  0  0  0
 18 17  1  0  0  0  0
 19 20  1  0  0  0  0
 19 18  1  0  0  0  0
 20 21  1  0  0  0  0
 21 16  1  0  0  0  0
 23 22  2  0  0  0  0
 23 24  1  0  0  0  0
 25  4  1  0  0  0  0
 26 25  1  6  0  0  0
 26 34  1  0  0  0  0
 27 33  1  0  0  0  0
 27 26  1  0  0  0  0
 28 27  2  0  0  0  0
 29 30  2  0  0  0  0
 29 28  1  0  0  0  0
 30 32  1  0  0  0  0
 31 30  1  0  0  0  0
 32 33  2  0  0  0  0
 34 40  1  0  0  0  0
 35 34  2  0  0  0  0
 35 36  1  0  0  0  0
 36 37  2  0  0  0  0
 37 39  1  0  0  0  0
 37 38  1  0  0  0  0
 40 39  2  0  0  0  0
M  END
>  <minimizedAffinity>
-8.52785015

$$$$
