
 OpenBabel09132204463D

 40 45  0  0  1  0  0  0  0  0999 V2000
    3.7780   -3.0410    5.5100 C   0  0  0  0  0  0  0  0  0  0  0  0
    2.4870   -2.5700    5.7650 C   0  0  0  0  0  3  0  0  0  0  0  0
    2.2670   -1.6270    6.7740 C   0  0  0  0  0  3  0  0  0  0  0  0
    3.3250   -1.1520    7.5550 C   0  0  0  0  0  0  0  0  0  0  0  0
    4.6050   -1.6490    7.3290 C   0  0  0  0  0  3  0  0  0  0  0  0
    4.8290   -2.5860    6.3130 C   0  0  0  0  0  3  0  0  0  0  0  0
    5.2030   -6.4960    0.8290 C   0  0  0  0  0  0  0  0  0  0  0  0
    4.8500   -7.5520    1.6830 C   0  0  0  0  0  3  0  0  0  0  0  0
    4.3880   -7.3350    2.9880 C   0  0  0  0  0  3  0  0  0  0  0  0
    4.2860   -6.0080    3.4280 C   0  0  0  0  0  0  0  0  0  0  0  0
    4.6360   -4.9370    2.6100 C   0  0  0  0  0  0  0  0  0  0  0  0
    5.0930   -5.1740    1.3040 C   0  0  0  0  0  3  0  0  0  0  0  0
    4.4600   -3.7460    3.2670 N   0  0  0  0  0  0  0  0  0  0  0  0
    4.0430   -4.0480    4.4810 C   0  0  0  0  0  0  0  0  0  0  0  0
    3.8650   -5.4190    4.6040 N   0  0  0  0  0  0  0  0  0  0  0  0
    3.2760   -6.1070    5.7510 C   0  0  0  0  0  3  0  0  0  0  0  0
    3.8770   -5.6650    7.0970 C   0  0  0  0  0  2  0  0  0  0  0  0
    3.2680   -6.4490    8.2590 C   0  0  0  0  0  2  0  0  0  0  0  0
    1.7450   -6.3620    8.2600 C   0  0  0  0  0  2  0  0  0  0  0  0
    1.1520   -6.8170    6.9290 C   0  0  0  0  0  2  0  0  0  0  0  0
    1.7410   -6.0400    5.7550 C   0  0  0  0  0  2  0  0  0  0  0  0
    6.4160   -5.8790   -1.1240 O   0  0  0  0  0  0  0  0  0  0  0  0
    5.6940   -6.7730   -0.5790 C   0  0  0  0  0  0  0  0  0  0  0  0
    5.3510   -7.8750   -1.1110 O   0  0  0  0  0  1  0  0  0  0  0  0
    2.9540   -0.2660    8.5230 O   0  0  0  0  0  0  0  0  0  0  0  0
    3.3100   -0.4360    9.9090 C   0  0  1  0  0  3  0  0  0  0  0  0
    3.2610   -1.8820   10.4220 C   0  0  0  0  0  0  0  0  0  0  0  0
    4.4110   -2.5820   10.8230 C   0  0  0  0  0  3  0  0  0  0  0  0
    4.3310   -3.9080   11.2600 C   0  0  0  0  0  3  0  0  0  0  0  0
    3.1030   -4.5600   11.2810 C   0  0  0  0  0  0  0  0  0  0  0  0
    3.0060   -6.1940   11.8110 Cl  0  0  0  0  0  0  0  0  0  0  0  0
    1.9520   -3.8990   10.8650 C   0  0  0  0  0  3  0  0  0  0  0  0
    2.0330   -2.5730   10.4310 C   0  0  0  0  0  3  0  0  0  0  0  0
    4.4630    0.4650   10.3700 C   0  0  0  0  0  0  0  0  0  0  0  0
    4.1900    1.4820   11.3050 C   0  0  0  0  0  3  0  0  0  0  0  0
    5.2010    2.3310   11.7610 C   0  0  0  0  0  3  0  0  0  0  0  0
    6.4990    2.1760   11.2860 C   0  0  0  0  0  0  0  0  0  0  0  0
    7.7480    3.2170   11.8510 Cl  0  0  0  0  0  0  0  0  0  0  0  0
    6.7940    1.1830   10.3560 C   0  0  0  0  0  3  0  0  0  0  0  0
    5.7810    0.3340    9.8990 C   0  0  0  0  0  3  0  0  0  0  0  0
  1  2  2  0  0  0  0
  1  6  1  0  0  0  0
  2  3  1  0  0  0  0
  3  4  2  0  0  0  0
  4 25  1  0  0  0  0
  5  4  1  0  0  0  0
  6  5  2  0  0  0  0
  7 12  2  0  0  0  0
  7  8  1  0  0  0  0
  8  9  2  0  0  0  0
  9 10  1  0  0  0  0
 10 15  1  0  0  0  0
 11 13  1  0  0  0  0
 11 10  2  0  0  0  0
 12 11  1  0  0  0  0
 13 14  2  0  0  0  0
 14 15  1  0  0  0  0
 14  1  1  0  0  0  0
 15 16  1  0  0  0  0
 16 21  1  0  0  0  0
 16 17  1  0  0  0  0
 17 18  1  0  0  0  0
 18 19  1  0  0  0  0
 20 19  1  0  0  0  0
 21 20  1  0  0  0  0
 22 23  2  0  0  0  0
 23  7  1  0  0  0  0
 24 23  1  0  0  0  0
 26 25  1  6  0  0  0
 26 34  1  0  0  0  0
 26 27  1  0  0  0  0
 27 33  2  0  0  0  0
 27 28  1  0  0  0  0
 28 29  2  0  0  0  0
 29 30  1  0  0  0  0
 30 31  1  0  0  0  0
 32 30  2  0  0  0  0
 33 32  1  0  0  0  0
 34 35  1  0  0  0  0
 35 36  2  0  0  0  0
 37 36  1  0  0  0  0
 37 38  1  0  0  0  0
 39 37  2  0  0  0  0
 40 39  1  0  0  0  0
 40 34  2  0  0  0  0
M  END
>  <minimizedAffinity>
-9.51228905

$$$$
