
 OpenBabel09132204463D

 40 45  0  0  1  0  0  0  0  0999 V2000
    4.4250   -8.8640    3.2050 C   0  0  0  0  0  0  0  0  0  0  0  0
    5.2100   -9.6280    4.0730 C   0  0  0  0  0  3  0  0  0  0  0  0
    5.4270  -10.9860    3.8170 C   0  0  0  0  0  3  0  0  0  0  0  0
    4.8530  -11.6070    2.7040 C   0  0  0  0  0  0  0  0  0  0  0  0
    4.0390  -10.8580    1.8600 C   0  0  0  0  0  3  0  0  0  0  0  0
    3.8280   -9.4970    2.1080 C   0  0  0  0  0  3  0  0  0  0  0  0
    2.8570   -3.3460    4.9280 C   0  0  0  0  0  0  0  0  0  0  0  0
    3.7510   -2.9350    3.9280 C   0  0  0  0  0  3  0  0  0  0  0  0
    4.4460   -3.8480    3.1240 C   0  0  0  0  0  3  0  0  0  0  0  0
    4.2200   -5.2130    3.3500 C   0  0  0  0  0  0  0  0  0  0  0  0
    3.3470   -5.6570    4.3390 C   0  0  0  0  0  0  0  0  0  0  0  0
    2.6570   -4.7260    5.1320 C   0  0  0  0  0  3  0  0  0  0  0  0
    3.3040   -7.0270    4.3710 N   0  0  0  0  0  0  0  0  0  0  0  0
    4.1530   -7.4480    3.4540 C   0  0  0  0  0  0  0  0  0  0  0  0
    4.6910   -6.3710    2.7620 N   0  0  0  0  0  0  0  0  0  0  0  0
    5.5510   -6.4530    1.5840 C   0  0  0  0  0  3  0  0  0  0  0  0
    4.7810   -6.3060    0.2600 C   0  0  0  0  0  2  0  0  0  0  0  0
    5.7150   -6.4520   -0.9420 C   0  0  0  0  0  2  0  0  0  0  0  0
    6.8940   -5.4880   -0.8590 C   0  0  0  0  0  2  0  0  0  0  0  0
    7.6650   -5.6490    0.4490 C   0  0  0  0  0  2  0  0  0  0  0  0
    6.7520   -5.4980    1.6630 C   0  0  0  0  0  2  0  0  0  0  0  0
    2.3550   -2.3360    7.0250 O   0  0  0  0  0  1  0  0  0  0  0  0
    2.1220   -2.3250    5.7740 C   0  0  0  0  0  0  0  0  0  0  0  0
    1.3270   -1.5340    5.1750 O   0  0  0  0  0  0  0  0  0  0  0  0
    5.1220  -12.9410    2.6050 O   0  0  0  0  0  0  0  0  0  0  0  0
    4.0920  -13.9470    2.6680 C   0  0  1  0  0  3  0  0  0  0  0  0
    3.1080  -13.8010    3.8360 C   0  0  0  0  0  0  0  0  0  0  0  0
    1.8700  -13.1500    3.7060 C   0  0  0  0  0  3  0  0  0  0  0  0
    1.0100  -13.0120    4.8010 C   0  0  0  0  0  3  0  0  0  0  0  0
    1.3850  -13.5040    6.0460 C   0  0  0  0  0  0  0  0  0  0  0  0
    0.3310  -13.3290    7.3930 Cl  0  0  0  0  0  0  0  0  0  0  0  0
    2.6170  -14.1310    6.2090 C   0  0  0  0  0  3  0  0  0  0  0  0
    3.4740  -14.2700    5.1140 C   0  0  0  0  0  3  0  0  0  0  0  0
    3.5420  -14.3600    1.2960 C   0  0  0  0  0  0  0  0  0  0  0  0
    4.2450  -13.9610    0.1430 C   0  0  0  0  0  3  0  0  0  0  0  0
    3.7930  -14.3100   -1.1320 C   0  0  0  0  0  3  0  0  0  0  0  0
    2.6290  -15.0600   -1.2710 C   0  0  0  0  0  0  0  0  0  0  0  0
    2.0740  -15.4960   -2.8400 Cl  0  0  0  0  0  0  0  0  0  0  0  0
    1.9120  -15.4600   -0.1470 C   0  0  0  0  0  3  0  0  0  0  0  0
    2.3650  -15.1100    1.1290 C   0  0  0  0  0  3  0  0  0  0  0  0
  1 14  1  0  0  0  0
  1  2  1  0  0  0  0
  3  2  2  0  0  0  0
  4  3  1  0  0  0  0
  5  6  1  0  0  0  0
  5  4  2  0  0  0  0
  6  1  2  0  0  0  0
  7 12  1  0  0  0  0
  7 23  1  0  0  0  0
  8  7  2  0  0  0  0
  9 10  2  0  0  0  0
  9  8  1  0  0  0  0
 10 11  1  0  0  0  0
 11 13  1  0  0  0  0
 11 12  2  0  0  0  0
 14 13  2  0  0  0  0
 15 10  1  0  0  0  0
 15 14  1  0  0  0  0
 16 21  1  0  0  0  0
 16 15  1  0  0  0  0
 17 16  1  0  0  0  0
 18 19  1  0  0  0  0
 18 17  1  0  0  0  0
 19 20  1  0  0  0  0
 20 21  1  0  0  0  0
 23 22  1  0  0  0  0
 24 23  2  0  0  0  0
 25  4  1  0  0  0  0
 26 25  1  6  0  0  0
 26 27  1  0  0  0  0
 27 33  1  0  0  0  0
 28 27  2  0  0  0  0
 28 29  1  0  0  0  0
 29 30  2  0  0  0  0
 30 32  1  0  0  0  0
 30 31  1  0  0  0  0
 33 32  2  0  0  0  0
 34 26  1  0  0  0  0
 35 34  2  0  0  0  0
 36 35  1  0  0  0  0
 37 36  2  0  0  0  0
 37 39  1  0  0  0  0
 38 37  1  0  0  0  0
 39 40  2  0  0  0  0
 40 34  1  0  0  0  0
M  END
>  <minimizedAffinity>
-9.14891148

$$$$
