
 OpenBabel09132204463D

 40 45  0  0  1  0  0  0  0  0999 V2000
    6.3370   -6.5660    0.4470 C   0  0  0  0  0  0  0  0  0  0  0  0
    6.1560   -5.7920   -0.7020 C   0  0  0  0  0  3  0  0  0  0  0  0
    7.1870   -4.9690   -1.1680 C   0  0  0  0  0  3  0  0  0  0  0  0
    8.4060   -4.8920   -0.4890 C   0  0  0  0  0  0  0  0  0  0  0  0
    8.5750   -5.6320    0.6780 C   0  0  0  0  0  3  0  0  0  0  0  0
    7.5480   -6.4630    1.1420 C   0  0  0  0  0  3  0  0  0  0  0  0
    2.1690  -10.5930    1.9600 C   0  0  0  0  0  0  0  0  0  0  0  0
    2.0450   -9.8160    3.1220 C   0  0  0  0  0  3  0  0  0  0  0  0
    2.8030   -8.6560    3.3300 C   0  0  0  0  0  3  0  0  0  0  0  0
    3.7080   -8.2840    2.3270 C   0  0  0  0  0  0  0  0  0  0  0  0
    3.8630   -9.0360    1.1650 C   0  0  0  0  0  0  0  0  0  0  0  0
    3.0910  -10.1930    0.9730 C   0  0  0  0  0  3  0  0  0  0  0  0
    4.8100   -8.4760    0.3470 N   0  0  0  0  0  0  0  0  0  0  0  0
    5.2730   -7.4180    0.9810 C   0  0  0  0  0  0  0  0  0  0  0  0
    4.5840   -7.2270    2.1710 N   0  0  0  0  0  0  0  0  0  0  0  0
    4.7190   -6.0790    3.0650 C   0  0  0  0  0  3  0  0  0  0  0  0
    4.3140   -4.7480    2.4080 C   0  0  0  0  0  2  0  0  0  0  0  0
    4.5230   -3.5730    3.3630 C   0  0  0  0  0  2  0  0  0  0  0  0
    3.8040   -3.7930    4.6910 C   0  0  0  0  0  2  0  0  0  0  0  0
    4.2220   -5.1070    5.3470 C   0  0  0  0  0  2  0  0  0  0  0  0
    4.0130   -6.2960    4.4130 C   0  0  0  0  0  2  0  0  0  0  0  0
    1.7500  -12.7010    0.9380 O   0  0  0  0  0  0  0  0  0  0  0  0
    1.3260  -11.8390    1.7710 C   0  0  0  0  0  0  0  0  0  0  0  0
    0.2590  -11.9320    2.4560 O   0  0  0  0  0  1  0  0  0  0  0  0
    9.3000   -4.0220   -1.0390 O   0  0  0  0  0  0  0  0  0  0  0  0
   10.1530   -3.1770   -0.2410 C   0  0  1  0  0  3  0  0  0  0  0  0
   10.7410   -1.9640   -0.9740 C   0  0  0  0  0  0  0  0  0  0  0  0
   11.8240   -2.0690   -1.8620 C   0  0  0  0  0  3  0  0  0  0  0  0
   12.3510   -0.9360   -2.4920 C   0  0  0  0  0  3  0  0  0  0  0  0
   11.8150    0.3190   -2.2270 C   0  0  0  0  0  0  0  0  0  0  0  0
   12.4680    1.7120   -2.9960 Cl  0  0  0  0  0  0  0  0  0  0  0  0
   10.7590    0.4550   -1.3310 C   0  0  0  0  0  3  0  0  0  0  0  0
   10.2320   -0.6770   -0.7050 C   0  0  0  0  0  3  0  0  0  0  0  0
    9.6690   -2.9950    1.2040 C   0  0  0  0  0  0  0  0  0  0  0  0
   10.6210   -3.0280    2.2410 C   0  0  0  0  0  3  0  0  0  0  0  0
   10.2390   -2.8660    3.5750 C   0  0  0  0  0  3  0  0  0  0  0  0
    8.8980   -2.6720    3.8900 C   0  0  0  0  0  0  0  0  0  0  0  0
    8.4250   -2.4660    5.5320 Cl  0  0  0  0  0  0  0  0  0  0  0  0
    7.9360   -2.6420    2.8840 C   0  0  0  0  0  3  0  0  0  0  0  0
    8.3200   -2.8050    1.5490 C   0  0  0  0  0  3  0  0  0  0  0  0
  1 14  1  0  0  0  0
  1  6  1  0  0  0  0
  2  1  2  0  0  0  0
  3  2  1  0  0  0  0
  3  4  2  0  0  0  0
  4  5  1  0  0  0  0
  5  6  2  0  0  0  0
  7  8  1  0  0  0  0
  8  9  2  0  0  0  0
 10  9  1  0  0  0  0
 11 10  2  0  0  0  0
 12 11  1  0  0  0  0
 12  7  2  0  0  0  0
 13 14  2  0  0  0  0
 13 11  1  0  0  0  0
 14 15  1  0  0  0  0
 15 10  1  0  0  0  0
 15 16  1  0  0  0  0
 16 21  1  0  0  0  0
 17 16  1  0  0  0  0
 17 18  1  0  0  0  0
 18 19  1  0  0  0  0
 19 20  1  0  0  0  0
 21 20  1  0  0  0  0
 22 23  2  0  0  0  0
 23  7  1  0  0  0  0
 23 24  1  0  0  0  0
 25  4  1  0  0  0  0
 26 25  1  6  0  0  0
 26 34  1  0  0  0  0
 27 33  1  0  0  0  0
 27 26  1  0  0  0  0
 28 27  2  0  0  0  0
 29 30  2  0  0  0  0
 29 28  1  0  0  0  0
 30 32  1  0  0  0  0
 31 30  1  0  0  0  0
 32 33  2  0  0  0  0
 34 40  2  0  0  0  0
 34 35  1  0  0  0  0
 35 36  2  0  0  0  0
 36 37  1  0  0  0  0
 37 38  1  0  0  0  0
 39 37  2  0  0  0  0
 40 39  1  0  0  0  0
M  END
>  <minimizedAffinity>
-9.55528641

$$$$
