
 OpenBabel09132204463D

 40 45  0  0  1  0  0  0  0  0999 V2000
    6.2040   -6.6730    0.6070 C   0  0  0  0  0  0  0  0  0  0  0  0
    7.4700   -6.6490    1.2000 C   0  0  0  0  0  3  0  0  0  0  0  0
    8.4810   -5.8390    0.6720 C   0  0  0  0  0  3  0  0  0  0  0  0
    8.2520   -5.0550   -0.4620 C   0  0  0  0  0  0  0  0  0  0  0  0
    7.0050   -5.1060   -1.0770 C   0  0  0  0  0  3  0  0  0  0  0  0
    5.9890   -5.9090   -0.5450 C   0  0  0  0  0  3  0  0  0  0  0  0
    2.0040  -10.7080    2.0050 C   0  0  0  0  0  0  0  0  0  0  0  0
    1.8620   -9.9440    3.1740 C   0  0  0  0  0  3  0  0  0  0  0  0
    2.6190   -8.7890    3.4080 C   0  0  0  0  0  3  0  0  0  0  0  0
    3.5420   -8.4070    2.4240 C   0  0  0  0  0  0  0  0  0  0  0  0
    3.7130   -9.1460    1.2560 C   0  0  0  0  0  0  0  0  0  0  0  0
    2.9430  -10.2980    1.0380 C   0  0  0  0  0  3  0  0  0  0  0  0
    4.6750   -8.5790    0.4590 N   0  0  0  0  0  0  0  0  0  0  0  0
    5.1300   -7.5290    1.1140 C   0  0  0  0  0  0  0  0  0  0  0  0
    4.4220   -7.3500    2.2950 N   0  0  0  0  0  0  0  0  0  0  0  0
    4.5440   -6.2130    3.2030 C   0  0  0  0  0  3  0  0  0  0  0  0
    4.1870   -4.8690    2.5450 C   0  0  0  0  0  2  0  0  0  0  0  0
    4.3810   -3.7070    3.5190 C   0  0  0  0  0  2  0  0  0  0  0  0
    3.6120   -3.9260    4.8180 C   0  0  0  0  0  2  0  0  0  0  0  0
    3.9830   -5.2530    5.4760 C   0  0  0  0  0  2  0  0  0  0  0  0
    3.7870   -6.4290    4.5240 C   0  0  0  0  0  2  0  0  0  0  0  0
    0.2860  -12.2150    2.6730 O   0  0  0  0  0  1  0  0  0  0  0  0
    1.1610  -11.9500    1.7880 C   0  0  0  0  0  0  0  0  0  0  0  0
    1.3890  -12.6350    0.7420 O   0  0  0  0  0  0  0  0  0  0  0  0
    9.3400   -4.3470   -0.8820 O   0  0  0  0  0  0  0  0  0  0  0  0
    9.7150   -3.0820   -0.2990 C   0  0  1  0  0  3  0  0  0  0  0  0
    9.4770   -2.9640    1.2120 C   0  0  0  0  0  0  0  0  0  0  0  0
    8.1910   -2.8700    1.7700 C   0  0  0  0  0  3  0  0  0  0  0  0
    8.0140   -2.7360    3.1510 C   0  0  0  0  0  3  0  0  0  0  0  0
    9.1200   -2.6740    3.9910 C   0  0  0  0  0  0  0  0  0  0  0  0
    8.9020   -2.5020    5.6890 Cl  0  0  0  0  0  0  0  0  0  0  0  0
   10.4060   -2.7390    3.4620 C   0  0  0  0  0  3  0  0  0  0  0  0
   10.5810   -2.8740    2.0830 C   0  0  0  0  0  3  0  0  0  0  0  0
   11.0010   -2.4860   -0.8860 C   0  0  0  0  0  0  0  0  0  0  0  0
   12.1580   -3.2870   -0.9240 C   0  0  0  0  0  3  0  0  0  0  0  0
   13.3570   -2.7980   -1.4480 C   0  0  0  0  0  3  0  0  0  0  0  0
   13.4150   -1.4980   -1.9400 C   0  0  0  0  0  0  0  0  0  0  0  0
   14.8880   -0.8940   -2.5920 Cl  0  0  0  0  0  0  0  0  0  0  0  0
   12.2870   -0.6820   -1.9070 C   0  0  0  0  0  3  0  0  0  0  0  0
   11.0880   -1.1730   -1.3820 C   0  0  0  0  0  3  0  0  0  0  0  0
  1 14  1  0  0  0  0
  1  2  1  0  0  0  0
  3  2  2  0  0  0  0
  4  3  1  0  0  0  0
  5  6  1  0  0  0  0
  5  4  2  0  0  0  0
  6  1  2  0  0  0  0
  7  8  1  0  0  0  0
  8  9  2  0  0  0  0
 10  9  1  0  0  0  0
 11 10  2  0  0  0  0
 12 11  1  0  0  0  0
 12  7  2  0  0  0  0
 13 14  2  0  0  0  0
 13 11  1  0  0  0  0
 14 15  1  0  0  0  0
 15 10  1  0  0  0  0
 15 16  1  0  0  0  0
 16 21  1  0  0  0  0
 17 16  1  0  0  0  0
 17 18  1  0  0  0  0
 18 19  1  0  0  0  0
 19 20  1  0  0  0  0
 21 20  1  0  0  0  0
 23  7  1  0  0  0  0
 23 22  1  0  0  0  0
 24 23  2  0  0  0  0
 25  4  1  0  0  0  0
 26 25  1  1  0  0  0
 26 27  1  0  0  0  0
 27 28  2  0  0  0  0
 27 33  1  0  0  0  0
 28 29  1  0  0  0  0
 29 30  2  0  0  0  0
 30 31  1  0  0  0  0
 32 30  1  0  0  0  0
 33 32  2  0  0  0  0
 34 26  1  0  0  0  0
 35 34  1  0  0  0  0
 36 35  2  0  0  0  0
 37 39  2  0  0  0  0
 37 36  1  0  0  0  0
 38 37  1  0  0  0  0
 39 40  1  0  0  0  0
 40 34  2  0  0  0  0
M  END
>  <minimizedAffinity>
-9.80203056

$$$$
