
 OpenBabel09122219543D

 26 28  0  0  1  0  0  0  0  0999 V2000
    5.1030   -2.6040    6.2010 C   0  0  0  0  0  2  0  0  0  0  0  0
    4.7560   -4.1240    6.0570 C   0  0  1  0  0  0  0  0  0  0  0  0
    5.5900   -4.9230    7.0770 C   0  0  0  0  0  2  0  0  0  0  0  0
    5.2330   -4.4510    8.4510 C   0  0  0  0  0  0  0  0  0  0  0  0
    6.1000   -4.2360    9.2980 O   0  0  0  0  0  0  0  0  0  0  0  0
    3.7800   -4.3320    8.7700 C   0  0  0  0  0  2  0  0  0  0  0  0
    2.8490   -4.4380    7.6060 C   0  0  0  0  0  0  0  0  0  0  0  0
    1.6400   -4.5740    7.7810 O   0  0  0  0  0  0  0  0  0  0  0  0
    3.3560   -4.3520    6.3570 O   0  0  0  0  0  0  0  0  0  0  0  0
    5.0290   -4.6930    4.6220 C   0  0  0  0  0  3  0  0  0  0  0  0
    3.8090   -4.6560    3.6820 C   0  0  0  0  0  2  0  0  0  0  0  0
    4.4010   -4.9050    2.3080 C   0  0  0  0  0  2  0  0  0  0  0  0
    5.6750   -4.0830    2.3100 C   0  0  0  0  0  2  0  0  0  0  0  0
    6.0920   -3.9580    3.7780 C   0  0  0  0  0  2  0  0  0  0  0  0
    4.1390   -1.6310    6.8930 C   0  0  0  0  0  2  0  0  0  0  0  0
    0.3130   -0.5940    5.1070 C   0  0  0  0  0  0  0  0  0  0  0  0
    0.9540   -1.7880    4.7620 C   0  0  0  0  0  3  0  0  0  0  0  0
    2.1870   -2.1420    5.3250 C   0  0  0  0  0  3  0  0  0  0  0  0
    2.8250   -1.2950    6.2330 C   0  0  0  0  0  0  0  0  0  0  0  0
    2.1520   -0.1250    6.6160 C   0  0  0  0  0  3  0  0  0  0  0  0
    0.9160    0.2150    6.0620 C   0  0  0  0  0  0  0  0  0  0  0  0
    0.3320    1.3320    6.5130 F   0  0  0  0  0  0  0  0  0  0  0  0
   -0.8860   -0.4090    4.4910 O   0  0  0  0  0  0  0  0  0  0  0  0
    0.1840   -0.4280    2.2870 C   0  0  0  0  0  1  0  0  0  0  0  0
   -1.0010    0.0260    3.1310 C   0  0  0  0  0  3  0  0  0  0  0  0
   -2.3630   -0.1770    2.4680 C   0  0  0  0  0  1  0  0  0  0  0  0
  1 15  1  0  0  0  0
  2  1  1  1  0  0  0
  2  9  1  0  0  0  0
  2  3  1  0  0  0  0
  3  4  1  0  0  0  0
  4  6  1  0  0  0  0
  4  5  2  0  0  0  0
  7  8  2  0  0  0  0
  7  6  1  0  0  0  0
  9  7  1  0  0  0  0
 10  2  1  0  0  0  0
 11 10  1  0  0  0  0
 12 13  1  0  0  0  0
 12 11  1  0  0  0  0
 13 14  1  0  0  0  0
 14 10  1  0  0  0  0
 16 21  1  0  0  0  0
 17 16  2  0  0  0  0
 17 18  1  0  0  0  0
 18 19  2  0  0  0  0
 19 20  1  0  0  0  0
 19 15  1  0  0  0  0
 21 22  1  0  0  0  0
 21 20  2  0  0  0  0
 23 16  1  0  0  0  0
 24 25  1  0  0  0  0
 25 23  1  0  0  0  0
 26 25  1  0  0  0  0
M  END
>  <minimizedAffinity>
9.92180824

$$$$
