
 OpenBabel09122222393D

 35 39  0  0  0  0  0  0  0  0999 V2000
    2.6870   -2.6350    4.7970 N   0  0  0  0  0  0  0  0  0  0  0  0
    3.2370   -2.5890    6.0700 C   0  0  0  0  0  0  0  0  0  0  0  0
    4.4740   -3.2320    5.9740 C   0  0  0  0  0  0  0  0  0  0  0  0
    4.6540   -3.5480    4.5830 C   0  0  0  0  0  0  0  0  0  0  0  0
    5.4970   -4.4080    3.8580 C   0  0  0  0  0  3  0  0  0  0  0  0
    5.3130   -4.5030    2.4660 C   0  0  0  0  0  0  0  0  0  0  0  0
    4.5830   -3.5210    1.7820 C   0  0  0  0  0  3  0  0  0  0  0  0
    3.7390   -2.6560    2.4840 C   0  0  0  0  0  3  0  0  0  0  0  0
    3.6980   -2.8250    3.8750 C   0  0  0  0  0  0  0  0  0  0  0  0
    2.4980   -2.0700    7.2180 C   0  0  0  0  0  0  0  0  0  0  0  0
    2.1420   -0.7210    7.3030 C   0  0  0  0  0  3  0  0  0  0  0  0
    1.4460   -0.2400    8.4130 C   0  0  0  0  0  3  0  0  0  0  0  0
    1.0990   -1.1070    9.4470 C   0  0  0  0  0  3  0  0  0  0  0  0
    1.4490   -2.4540    9.3720 C   0  0  0  0  0  3  0  0  0  0  0  0
    2.1480   -2.9340    8.2620 C   0  0  0  0  0  3  0  0  0  0  0  0
    5.4770   -3.5840    7.0510 C   0  0  0  0  0  3  0  0  0  0  0  0
    5.4140   -2.6680    8.2850 C   0  0  0  0  0  2  0  0  0  0  0  0
    6.5130   -3.0110    9.2880 C   0  0  0  0  0  2  0  0  0  0  0  0
    6.4630   -4.4840    9.6880 C   0  0  0  0  0  2  0  0  0  0  0  0
    6.5130   -5.4030    8.4700 C   0  0  0  0  0  2  0  0  0  0  0  0
    5.4210   -5.0630    7.4560 C   0  0  0  0  0  2  0  0  0  0  0  0
    5.5420   -5.8210    1.7870 C   0  0  0  0  0  0  0  0  0  0  0  0
    6.3310   -6.6510    2.3140 O   0  0  0  0  0  1  0  0  0  0  0  0
    5.0580   -5.8940    0.6000 O   0  0  0  0  0  0  0  0  0  0  0  0
    1.2890   -2.9880    4.5040 C   0  0  0  0  0  2  0  0  0  0  0  0
   -4.4970   -6.1670    5.7150 C   0  0  0  0  0  1  0  0  0  0  0  0
   -3.1620   -5.6400    5.3210 N   0  0  0  0  0  4  0  0  0  0  0  0
   -2.0550   -6.6490    5.3970 C   0  0  0  0  0  2  0  0  0  0  0  0
   -0.7480   -6.0820    4.8250 C   0  0  0  0  0  2  0  0  0  0  0  0
   -0.3970   -4.7310    5.2850 N   0  0  0  0  0  0  0  0  0  0  0  0
    0.9400   -4.3610    5.1130 C   0  0  0  0  0  0  0  0  0  0  0  0
    1.8300   -5.1730    5.3860 O   0  0  0  0  0  0  0  0  0  0  0  0
   -1.5010   -3.7810    5.4140 C   0  0  0  0  0  2  0  0  0  0  0  0
   -2.7910   -4.3610    6.0120 C   0  0  0  0  0  2  0  0  0  0  0  0
   -3.3150   -5.4000    4.2910 H   0  0  0  0  0  0  0  0  0  0  0  0
  1  2  1  0  0  0  0
  2 10  1  0  0  0  0
  3  2  2  0  0  0  0
  3 16  1  0  0  0  0
  4  3  1  0  0  0  0
  5  4  2  0  0  0  0
  6  5  1  0  0  0  0
  7  6  2  0  0  0  0
  7  8  1  0  0  0  0
  8  9  2  0  0  0  0
  9  4  1  0  0  0  0
  9  1  1  0  0  0  0
 10 11  2  0  0  0  0
 10 15  1  0  0  0  0
 11 12  1  0  0  0  0
 12 13  2  0  0  0  0
 14 13  1  0  0  0  0
 15 14  2  0  0  0  0
 16 21  1  0  0  0  0
 16 17  1  0  0  0  0
 17 18  1  0  0  0  0
 18 19  1  0  0  0  0
 20 19  1  0  0  0  0
 21 20  1  0  0  0  0
 22 23  1  0  0  0  0
 22  6  1  0  0  0  0
 24 22  2  0  0  0  0
 25  1  1  0  0  0  0
 25 31  1  0  0  0  0
 27 28  1  0  0  0  0
 27 26  1  0  0  0  0
 27 34  1  0  0  0  0
 29 30  1  0  0  0  0
 29 28  1  0  0  0  0
 30 33  1  0  0  0  0
 31 30  1  0  0  0  0
 31 32  2  0  0  0  0
 33 34  1  0  0  0  0
 35 27  1  0  0  0  0
M  END
>  <minimizedAffinity>
14.241663

$$$$
