
 OpenBabel09132200273D

 37 41  0  0  1  0  0  0  0  0999 V2000
    1.6300   -6.7000    7.5130 N   0  0  0  0  0  0  0  0  0  0  0  0
    0.8760   -7.4830    8.3880 C   0  0  0  0  0  0  0  0  0  0  0  0
    1.1060   -7.6220    9.5860 O   0  0  0  0  0  0  0  0  0  0  0  0
   -0.3680   -8.1030    7.8990 C   0  0  0  0  0  0  0  0  0  0  0  0
   -1.5730   -7.4220    8.1300 C   0  0  0  0  0  3  0  0  0  0  0  0
   -2.7790   -7.9780    7.7010 C   0  0  0  0  0  3  0  0  0  0  0  0
   -2.7780   -9.2180    7.0620 C   0  0  0  0  0  0  0  0  0  0  0  0
   -4.2660   -9.9000    6.5300 Cl  0  0  0  0  0  0  0  0  0  0  0  0
   -1.5870   -9.9150    6.8640 C   0  0  0  0  0  3  0  0  0  0  0  0
   -0.3760   -9.3630    7.2940 C   0  0  0  0  0  0  0  0  0  0  0  0
    1.0570  -10.2910    7.0420 Cl  0  0  0  0  0  0  0  0  0  0  0  0
    2.8760   -6.0480    8.0520 C   0  0  2  0  0  3  0  0  0  0  0  0
    4.4150   -6.7910    9.7370 O   0  0  0  0  0  1  0  0  0  0  0  0
    3.9910   -7.0280    8.5650 C   0  0  0  0  0  0  0  0  0  0  0  0
    4.2630   -8.0190    7.8250 O   0  0  0  0  0  0  0  0  0  0  0  0
    2.5130   -4.9310    9.0530 C   0  0  0  0  0  2  0  0  0  0  0  0
    2.5820   -3.5460    8.4360 C   0  0  0  0  0  0  0  0  0  0  0  0
    3.1770   -3.3670    7.1810 C   0  0  0  0  0  3  0  0  0  0  0  0
    3.2260   -2.1020    6.5940 C   0  0  0  0  0  3  0  0  0  0  0  0
    2.6770   -1.0050    7.2560 C   0  0  0  0  0  3  0  0  0  0  0  0
    2.0780   -1.1730    8.5040 C   0  0  0  0  0  3  0  0  0  0  0  0
    2.0280   -2.4390    9.0910 C   0  0  0  0  0  3  0  0  0  0  0  0
    1.2490   -6.3740    6.1350 C   0  0  0  0  0  2  0  0  0  0  0  0
    2.2850   -6.7750    5.1290 C   0  0  0  0  0  0  0  0  0  0  0  0
    2.7170   -8.0370    4.7790 C   0  0  0  0  0  3  0  0  0  0  0  0
    3.7010   -8.0150    3.7500 C   0  0  0  0  0  3  0  0  0  0  0  0
    4.0200   -6.7330    3.3500 C   0  0  0  0  0  0  0  0  0  0  0  0
    3.1480   -5.5720    4.2610 S   0  0  0  0  0  0  0  0  0  0  0  0
    4.9450   -6.3360    2.3220 C   0  0  0  0  0  0  0  0  0  0  0  0
    4.8100   -6.4520    0.9450 C   0  0  0  0  0  3  0  0  0  0  0  0
    5.9770   -5.9110    0.3480 C   0  0  0  0  0  0  0  0  0  0  0  0
    6.4480   -5.7300   -0.9640 C   0  0  0  0  0  3  0  0  0  0  0  0
    7.7010   -5.1290   -1.1510 C   0  0  0  0  0  3  0  0  0  0  0  0
    8.4710   -4.7150   -0.0610 C   0  0  0  0  0  3  0  0  0  0  0  0
    8.0180   -4.8870    1.2510 C   0  0  0  0  0  3  0  0  0  0  0  0
    6.7710   -5.4890    1.4030 C   0  0  0  0  0  0  0  0  0  0  0  0
    6.1570   -5.7430    2.5880 O   0  0  0  0  0  0  0  0  0  0  0  0
  1 12  1  0  0  0  0
  1  2  1  0  0  0  0
  2  3  2  0  0  0  0
  4  5  1  0  0  0  0
  4  2  1  0  0  0  0
  6  5  2  0  0  0  0
  7  6  1  0  0  0  0
  8  7  1  0  0  0  0
  9  7  2  0  0  0  0
  9 10  1  0  0  0  0
 10  4  2  0  0  0  0
 11 10  1  0  0  0  0
 12 14  1  0  0  0  0
 12 16  1  1  0  0  0
 14 13  1  0  0  0  0
 15 14  2  0  0  0  0
 17 16  1  0  0  0  0
 17 22  1  0  0  0  0
 18 17  2  0  0  0  0
 19 18  1  0  0  0  0
 19 20  2  0  0  0  0
 20 21  1  0  0  0  0
 21 22  2  0  0  0  0
 23  1  1  0  0  0  0
 24 23  1  0  0  0  0
 25 24  2  0  0  0  0
 26 25  1  0  0  0  0
 27 26  2  0  0  0  0
 27 28  1  0  0  0  0
 28 24  1  0  0  0  0
 29 37  1  0  0  0  0
 29 27  1  0  0  0  0
 30 29  2  0  0  0  0
 31 30  1  0  0  0  0
 31 36  1  0  0  0  0
 32 31  2  0  0  0  0
 33 32  1  0  0  0  0
 33 34  2  0  0  0  0
 34 35  1  0  0  0  0
 35 36  2  0  0  0  0
 36 37  1  0  0  0  0
M  END
>  <minimizedAffinity>
-7.91250277

$$$$

 OpenBabel09132200273D

 37 41  0  0  1  0  0  0  0  0999 V2000
    1.8790  -11.1920    5.6200 N   0  0  0  0  0  0  0  0  0  0  0  0
    2.0360  -12.4450    6.2150 C   0  0  0  0  0  0  0  0  0  0  0  0
    1.4630  -13.4710    5.8580 O   0  0  0  0  0  0  0  0  0  0  0  0
    3.0500  -12.6120    7.2710 C   0  0  0  0  0  0  0  0  0  0  0  0
    2.7770  -12.0610    8.5330 C   0  0  0  0  0  3  0  0  0  0  0  0
    3.7140  -12.1780    9.5600 C   0  0  0  0  0  3  0  0  0  0  0  0
    4.9250  -12.8260    9.3170 C   0  0  0  0  0  0  0  0  0  0  0  0
    6.0780  -12.9740   10.5870 Cl  0  0  0  0  0  0  0  0  0  0  0  0
    5.2150  -13.3430    8.0550 C   0  0  0  0  0  3  0  0  0  0  0  0
    4.2800  -13.2260    7.0220 C   0  0  0  0  0  0  0  0  0  0  0  0
    4.7150  -13.8630    5.4790 Cl  0  0  0  0  0  0  0  0  0  0  0  0
    0.8620  -11.0630    4.5170 C   0  0  2  0  0  3  0  0  0  0  0  0
   -0.8170   -9.6140    5.4340 O   0  0  0  0  0  1  0  0  0  0  0  0
   -0.6120  -10.7810    4.9780 C   0  0  0  0  0  0  0  0  0  0  0  0
   -1.4670  -11.6820    4.7360 O   0  0  0  0  0  0  0  0  0  0  0  0
    0.9950  -12.2310    3.5180 C   0  0  0  0  0  2  0  0  0  0  0  0
    2.0120  -11.9550    2.4260 C   0  0  0  0  0  0  0  0  0  0  0  0
    2.9540  -12.9320    2.0820 C   0  0  0  0  0  3  0  0  0  0  0  0
    3.8790  -12.6970    1.0640 C   0  0  0  0  0  3  0  0  0  0  0  0
    3.8690  -11.4830    0.3790 C   0  0  0  0  0  3  0  0  0  0  0  0
    2.9320  -10.5050    0.7100 C   0  0  0  0  0  3  0  0  0  0  0  0
    2.0050  -10.7400    1.7270 C   0  0  0  0  0  3  0  0  0  0  0  0
    2.7020  -10.0150    5.9110 C   0  0  0  0  0  2  0  0  0  0  0  0
    3.7560   -9.7640    4.8740 C   0  0  0  0  0  0  0  0  0  0  0  0
    4.7690  -10.5950    4.4440 C   0  0  0  0  0  3  0  0  0  0  0  0
    5.5570  -10.0100    3.4120 C   0  0  0  0  0  3  0  0  0  0  0  0
    5.1460   -8.7320    3.0920 C   0  0  0  0  0  0  0  0  0  0  0  0
    3.8320   -8.2450    4.0780 S   0  0  0  0  0  0  0  0  0  0  0  0
    5.6890   -7.8590    2.0850 C   0  0  0  0  0  0  0  0  0  0  0  0
    5.1630   -7.5410    0.8400 C   0  0  0  0  0  3  0  0  0  0  0  0
    6.0520   -6.6310    0.2130 C   0  0  0  0  0  0  0  0  0  0  0  0
    6.0970   -5.9490   -1.0150 C   0  0  0  0  0  3  0  0  0  0  0  0
    7.1840   -5.1010   -1.2730 C   0  0  0  0  0  3  0  0  0  0  0  0
    8.2050   -4.9330   -0.3330 C   0  0  0  0  0  3  0  0  0  0  0  0
    8.1760   -5.6040    0.8930 C   0  0  0  0  0  3  0  0  0  0  0  0
    7.0840   -6.4390    1.1180 C   0  0  0  0  0  0  0  0  0  0  0  0
    6.8710   -7.1750    2.2410 O   0  0  0  0  0  0  0  0  0  0  0  0
  1 23  1  0  0  0  0
  1  2  1  0  0  0  0
  2  4  1  0  0  0  0
  3  2  2  0  0  0  0
  4  5  1  0  0  0  0
  5  6  2  0  0  0  0
  7  6  1  0  0  0  0
  7  8  1  0  0  0  0
  9  7  2  0  0  0  0
 10  4  2  0  0  0  0
 10  9  1  0  0  0  0
 11 10  1  0  0  0  0
 12 16  1  1  0  0  0
 12 14  1  0  0  0  0
 12  1  1  0  0  0  0
 14 13  1  0  0  0  0
 15 14  2  0  0  0  0
 17 16  1  0  0  0  0
 18 17  1  0  0  0  0
 19 18  2  0  0  0  0
 20 21  2  0  0  0  0
 20 19  1  0  0  0  0
 21 22  1  0  0  0  0
 22 17  2  0  0  0  0
 24 23  1  0  0  0  0
 25 24  2  0  0  0  0
 26 25  1  0  0  0  0
 27 26  2  0  0  0  0
 27 28  1  0  0  0  0
 28 24  1  0  0  0  0
 29 37  1  0  0  0  0
 29 27  1  0  0  0  0
 30 29  2  0  0  0  0
 31 30  1  0  0  0  0
 31 36  1  0  0  0  0
 32 31  2  0  0  0  0
 33 32  1  0  0  0  0
 33 34  2  0  0  0  0
 34 35  1  0  0  0  0
 35 36  2  0  0  0  0
 36 37  1  0  0  0  0
M  END
>  <minimizedAffinity>
-7.88770485

$$$$

 OpenBabel09132200273D

 37 41  0  0  1  0  0  0  0  0999 V2000
    3.0100  -11.7760    3.7900 N   0  0  0  0  0  0  0  0  0  0  0  0
    1.6500  -12.0580    3.9160 C   0  0  0  0  0  0  0  0  0  0  0  0
    1.1170  -13.1190    3.6010 O   0  0  0  0  0  0  0  0  0  0  0  0
    0.7770  -11.0790    4.5890 C   0  0  0  0  0  0  0  0  0  0  0  0
    0.1950  -10.0730    3.8040 C   0  0  0  0  0  3  0  0  0  0  0  0
   -0.6240   -9.1130    4.3980 C   0  0  0  0  0  3  0  0  0  0  0  0
   -0.8420   -9.1510    5.7760 C   0  0  0  0  0  0  0  0  0  0  0  0
   -1.8570   -7.9680    6.5080 Cl  0  0  0  0  0  0  0  0  0  0  0  0
   -0.2360  -10.1270    6.5650 C   0  0  0  0  0  3  0  0  0  0  0  0
    0.5880  -11.0900    5.9740 C   0  0  0  0  0  0  0  0  0  0  0  0
    1.3280  -12.2520    7.0120 Cl  0  0  0  0  0  0  0  0  0  0  0  0
    3.8830  -12.8130    3.1320 C   0  0  2  0  0  3  0  0  0  0  0  0
    4.4000  -14.0710    5.1080 O   0  0  0  0  0  1  0  0  0  0  0  0
    4.9080  -13.5400    4.0730 C   0  0  0  0  0  0  0  0  0  0  0  0
    6.0980  -13.6360    3.6530 O   0  0  0  0  0  0  0  0  0  0  0  0
    4.5080  -12.2520    1.8370 C   0  0  0  0  0  2  0  0  0  0  0  0
    3.8070  -12.7490    0.5850 C   0  0  0  0  0  0  0  0  0  0  0  0
    4.1890  -13.9640    0.0030 C   0  0  0  0  0  3  0  0  0  0  0  0
    3.5350  -14.4400   -1.1340 C   0  0  0  0  0  3  0  0  0  0  0  0
    2.4920  -13.7070   -1.6980 C   0  0  0  0  0  3  0  0  0  0  0  0
    2.1010  -12.4990   -1.1230 C   0  0  0  0  0  3  0  0  0  0  0  0
    2.7530  -12.0220    0.0160 C   0  0  0  0  0  3  0  0  0  0  0  0
    3.6800  -10.5950    4.3430 C   0  0  0  0  0  2  0  0  0  0  0  0
    3.9900   -9.5560    3.3080 C   0  0  0  0  0  0  0  0  0  0  0  0
    3.1840   -9.0580    2.3050 C   0  0  0  0  0  3  0  0  0  0  0  0
    3.8290   -8.0490    1.5340 C   0  0  0  0  0  3  0  0  0  0  0  0
    5.1250   -7.8130    1.9480 C   0  0  0  0  0  0  0  0  0  0  0  0
    5.5530   -8.8510    3.2420 S   0  0  0  0  0  0  0  0  0  0  0  0
    6.0550   -6.8500    1.4210 C   0  0  0  0  0  0  0  0  0  0  0  0
    6.4490   -6.6590    0.1040 C   0  0  0  0  0  3  0  0  0  0  0  0
    7.3740   -5.5830    0.0800 C   0  0  0  0  0  0  0  0  0  0  0  0
    8.1180   -4.9130   -0.9070 C   0  0  0  0  0  3  0  0  0  0  0  0
    8.9510   -3.8540   -0.5180 C   0  0  0  0  0  3  0  0  0  0  0  0
    9.0450   -3.4670    0.8220 C   0  0  0  0  0  3  0  0  0  0  0  0
    8.3120   -4.1230    1.8170 C   0  0  0  0  0  3  0  0  0  0  0  0
    7.4960   -5.1700    1.3980 C   0  0  0  0  0  0  0  0  0  0  0  0
    6.7080   -5.9280    2.2050 O   0  0  0  0  0  0  0  0  0  0  0  0
  1  2  1  0  0  0  0
  1 23  1  0  0  0  0
  2  4  1  0  0  0  0
  3  2  2  0  0  0  0
  4 10  1  0  0  0  0
  5  6  1  0  0  0  0
  5  4  2  0  0  0  0
  6  7  2  0  0  0  0
  7  8  1  0  0  0  0
  7  9  1  0  0  0  0
 10  9  2  0  0  0  0
 10 11  1  0  0  0  0
 12 16  1  6  0  0  0
 12  1  1  0  0  0  0
 12 14  1  0  0  0  0
 14 13  1  0  0  0  0
 15 14  2  0  0  0  0
 17 16  1  0  0  0  0
 18 17  2  0  0  0  0
 19 18  1  0  0  0  0
 20 19  2  0  0  0  0
 20 21  1  0  0  0  0
 21 22  2  0  0  0  0
 22 17  1  0  0  0  0
 24 23  1  0  0  0  0
 25 24  2  0  0  0  0
 26 27  2  0  0  0  0
 26 25  1  0  0  0  0
 27 28  1  0  0  0  0
 28 24  1  0  0  0  0
 29 27  1  0  0  0  0
 29 37  1  0  0  0  0
 30 29  2  0  0  0  0
 31 30  1  0  0  0  0
 31 36  1  0  0  0  0
 32 33  1  0  0  0  0
 32 31  2  0  0  0  0
 33 34  2  0  0  0  0
 34 35  1  0  0  0  0
 36 35  2  0  0  0  0
 36 37  1  0  0  0  0
M  END
>  <minimizedAffinity>
-7.88437128

$$$$

 OpenBabel09132200273D

 37 41  0  0  1  0  0  0  0  0999 V2000
    0.6040  -10.2150    5.5260 N   0  0  0  0  0  0  0  0  0  0  0  0
    1.1550  -10.7510    6.6900 C   0  0  0  0  0  0  0  0  0  0  0  0
    0.5760  -10.8370    7.7700 O   0  0  0  0  0  0  0  0  0  0  0  0
    2.4840  -11.3850    6.6250 C   0  0  0  0  0  0  0  0  0  0  0  0
    2.5620  -12.6910    6.1170 C   0  0  0  0  0  3  0  0  0  0  0  0
    3.7960  -13.3390    6.0510 C   0  0  0  0  0  3  0  0  0  0  0  0
    4.9410  -12.6880    6.5100 C   0  0  0  0  0  0  0  0  0  0  0  0
    6.4640  -13.4880    6.4240 Cl  0  0  0  0  0  0  0  0  0  0  0  0
    4.8630  -11.4050    7.0490 C   0  0  0  0  0  3  0  0  0  0  0  0
    3.6280  -10.7520    7.1190 C   0  0  0  0  0  0  0  0  0  0  0  0
    3.5980   -9.1770    7.8220 Cl  0  0  0  0  0  0  0  0  0  0  0  0
   -0.7720   -9.6080    5.6170 C   0  0  2  0  0  3  0  0  0  0  0  0
   -2.0260  -11.2720    4.4260 O   0  0  0  0  0  1  0  0  0  0  0  0
   -1.7780  -10.0280    4.4880 C   0  0  0  0  0  0  0  0  0  0  0  0
   -2.3360   -9.0920    3.8440 O   0  0  0  0  0  0  0  0  0  0  0  0
   -0.6780   -8.0840    5.8400 C   0  0  0  0  0  2  0  0  0  0  0  0
   -0.5170   -7.7150    7.3030 C   0  0  0  0  0  0  0  0  0  0  0  0
    0.6300   -7.0350    7.7330 C   0  0  0  0  0  3  0  0  0  0  0  0
    0.7770   -6.6710    9.0720 C   0  0  0  0  0  3  0  0  0  0  0  0
   -0.2220   -6.9820    9.9930 C   0  0  0  0  0  3  0  0  0  0  0  0
   -1.3690   -7.6540    9.5750 C   0  0  0  0  0  3  0  0  0  0  0  0
   -1.5190   -8.0170    8.2350 C   0  0  0  0  0  3  0  0  0  0  0  0
    1.2140  -10.2890    4.1950 C   0  0  0  0  0  2  0  0  0  0  0  0
    2.1650   -9.1630    3.9210 C   0  0  0  0  0  0  0  0  0  0  0  0
    2.5410   -8.1210    4.7420 C   0  0  0  0  0  3  0  0  0  0  0  0
    3.4990   -7.2610    4.1330 C   0  0  0  0  0  3  0  0  0  0  0  0
    3.8160   -7.6480    2.8460 C   0  0  0  0  0  0  0  0  0  0  0  0
    2.9150   -9.0300    2.3830 S   0  0  0  0  0  0  0  0  0  0  0  0
    4.7600   -7.0340    1.9490 C   0  0  0  0  0  0  0  0  0  0  0  0
    4.6900   -6.9170    0.5680 C   0  0  0  0  0  3  0  0  0  0  0  0
    5.8480   -6.2230    0.1330 C   0  0  0  0  0  0  0  0  0  0  0  0
    6.3630   -5.7950   -1.1030 C   0  0  0  0  0  3  0  0  0  0  0  0
    7.5870   -5.1090   -1.1190 C   0  0  0  0  0  3  0  0  0  0  0  0
    8.2850   -4.8530    0.0640 C   0  0  0  0  0  3  0  0  0  0  0  0
    7.7870   -5.2720    1.3020 C   0  0  0  0  0  3  0  0  0  0  0  0
    6.5710   -5.9520    1.2840 C   0  0  0  0  0  0  0  0  0  0  0  0
    5.9230   -6.4380    2.3750 O   0  0  0  0  0  0  0  0  0  0  0  0
  1 12  1  0  0  0  0
  1  2  1  0  0  0  0
  2  3  2  0  0  0  0
  4  2  1  0  0  0  0
  4 10  1  0  0  0  0
  5  4  2  0  0  0  0
  6  5  1  0  0  0  0
  6  7  2  0  0  0  0
  7  9  1  0  0  0  0
  8  7  1  0  0  0  0
  9 10  2  0  0  0  0
 10 11  1  0  0  0  0
 12 16  1  6  0  0  0
 13 14  1  0  0  0  0
 14 12  1  0  0  0  0
 15 14  2  0  0  0  0
 16 17  1  0  0  0  0
 17 18  2  0  0  0  0
 17 22  1  0  0  0  0
 18 19  1  0  0  0  0
 19 20  2  0  0  0  0
 21 20  1  0  0  0  0
 22 21  2  0  0  0  0
 23  1  1  0  0  0  0
 24 23  1  0  0  0  0
 24 25  2  0  0  0  0
 26 25  1  0  0  0  0
 27 26  2  0  0  0  0
 28 27  1  0  0  0  0
 28 24  1  0  0  0  0
 29 37  1  0  0  0  0
 29 27  1  0  0  0  0
 30 29  2  0  0  0  0
 31 30  1  0  0  0  0
 31 36  1  0  0  0  0
 32 31  2  0  0  0  0
 33 32  1  0  0  0  0
 33 34  2  0  0  0  0
 34 35  1  0  0  0  0
 36 35  2  0  0  0  0
 36 37  1  0  0  0  0
M  END
>  <minimizedAffinity>
-7.67553997

$$$$

 OpenBabel09132200273D

 37 41  0  0  1  0  0  0  0  0999 V2000
    1.2550  -12.1090    4.8120 N   0  0  0  0  0  0  0  0  0  0  0  0
    2.0690  -13.1710    4.4170 C   0  0  0  0  0  0  0  0  0  0  0  0
    2.2380  -14.2060    5.0570 O   0  0  0  0  0  0  0  0  0  0  0  0
    2.6900  -13.1360    3.0810 C   0  0  0  0  0  0  0  0  0  0  0  0
    1.9300  -13.5970    1.9950 C   0  0  0  0  0  3  0  0  0  0  0  0
    2.4800  -13.5990    0.7130 C   0  0  0  0  0  3  0  0  0  0  0  0
    3.7910  -13.1600    0.5250 C   0  0  0  0  0  0  0  0  0  0  0  0
    4.4670  -13.1600   -1.0590 Cl  0  0  0  0  0  0  0  0  0  0  0  0
    4.5620  -12.7360    1.6060 C   0  0  0  0  0  3  0  0  0  0  0  0
    4.0150  -12.7350    2.8940 C   0  0  0  0  0  0  0  0  0  0  0  0
    5.0320  -12.2240    4.1900 Cl  0  0  0  0  0  0  0  0  0  0  0  0
    0.6050  -12.1920    6.1690 C   0  0  2  0  0  3  0  0  0  0  0  0
   -1.6310  -12.9350    5.7110 O   0  0  0  0  0  0  0  0  0  0  0  0
   -0.9510  -11.9780    6.1930 C   0  0  0  0  0  0  0  0  0  0  0  0
   -1.3750  -10.9500    6.7980 O   0  0  0  0  0  1  0  0  0  0  0  0
    1.3740  -11.3300    7.1920 C   0  0  0  0  0  2  0  0  0  0  0  0
    2.6180  -12.0200    7.7210 C   0  0  0  0  0  0  0  0  0  0  0  0
    2.5070  -13.2350    8.4090 C   0  0  0  0  0  3  0  0  0  0  0  0
    3.6460  -13.8890    8.8800 C   0  0  0  0  0  3  0  0  0  0  0  0
    4.9070  -13.3350    8.6650 C   0  0  0  0  0  3  0  0  0  0  0  0
    5.0290  -12.1280    7.9780 C   0  0  0  0  0  3  0  0  0  0  0  0
    3.8900  -11.4740    7.5040 C   0  0  0  0  0  3  0  0  0  0  0  0
    0.8960  -10.9650    3.9690 C   0  0  0  0  0  2  0  0  0  0  0  0
    2.0090   -9.9730    3.8200 C   0  0  0  0  0  0  0  0  0  0  0  0
    2.7650   -9.3580    4.7960 C   0  0  0  0  0  3  0  0  0  0  0  0
    3.7600   -8.4930    4.2560 C   0  0  0  0  0  3  0  0  0  0  0  0
    3.7270   -8.4440    2.8770 C   0  0  0  0  0  0  0  0  0  0  0  0
    2.4610   -9.4200    2.2590 S   0  0  0  0  0  0  0  0  0  0  0  0
    4.5960   -7.7030    2.0020 C   0  0  0  0  0  0  0  0  0  0  0  0
    4.4020   -7.3690    0.6690 C   0  0  0  0  0  3  0  0  0  0  0  0
    5.5300   -6.6230    0.2390 C   0  0  0  0  0  0  0  0  0  0  0  0
    5.9370   -6.0090   -0.9580 C   0  0  0  0  0  3  0  0  0  0  0  0
    7.1680   -5.3380   -0.9830 C   0  0  0  0  0  3  0  0  0  0  0  0
    7.9780   -5.2760    0.1550 C   0  0  0  0  0  3  0  0  0  0  0  0
    7.5880   -5.8810    1.3540 C   0  0  0  0  0  3  0  0  0  0  0  0
    6.3610   -6.5410    1.3450 C   0  0  0  0  0  0  0  0  0  0  0  0
    5.8070   -7.1880    2.4030 O   0  0  0  0  0  0  0  0  0  0  0  0
  1 12  1  0  0  0  0
  2  1  1  0  0  0  0
  2  3  2  0  0  0  0
  4  2  1  0  0  0  0
  5  4  2  0  0  0  0
  6  5  1  0  0  0  0
  7  6  2  0  0  0  0
  7  9  1  0  0  0  0
  8  7  1  0  0  0  0
  9 10  2  0  0  0  0
 10  4  1  0  0  0  0
 10 11  1  0  0  0  0
 12 14  1  0  0  0  0
 12 16  1  1  0  0  0
 13 14  2  0  0  0  0
 14 15  1  0  0  0  0
 16 17  1  0  0  0  0
 17 18  1  0  0  0  0
 18 19  2  0  0  0  0
 20 19  1  0  0  0  0
 21 20  2  0  0  0  0
 22 17  2  0  0  0  0
 22 21  1  0  0  0  0
 23  1  1  0  0  0  0
 24 23  1  0  0  0  0
 24 25  2  0  0  0  0
 26 25  1  0  0  0  0
 27 26  2  0  0  0  0
 28 27  1  0  0  0  0
 28 24  1  0  0  0  0
 29 37  1  0  0  0  0
 29 27  1  0  0  0  0
 30 29  2  0  0  0  0
 31 30  1  0  0  0  0
 31 36  1  0  0  0  0
 32 31  2  0  0  0  0
 33 32  1  0  0  0  0
 33 34  2  0  0  0  0
 34 35  1  0  0  0  0
 36 35  2  0  0  0  0
 36 37  1  0  0  0  0
M  END
>  <minimizedAffinity>
-7.52037001

$$$$

 OpenBabel09132200273D

 37 41  0  0  1  0  0  0  0  0999 V2000
    1.3250   -7.8760    7.2560 N   0  0  0  0  0  0  0  0  0  0  0  0
    0.4800   -8.9660    7.4660 C   0  0  0  0  0  0  0  0  0  0  0  0
    0.4090   -9.6140    8.5070 O   0  0  0  0  0  0  0  0  0  0  0  0
   -0.5040   -9.3160    6.4260 C   0  0  0  0  0  0  0  0  0  0  0  0
   -0.1550  -10.3150    5.5040 C   0  0  0  0  0  3  0  0  0  0  0  0
   -1.0460  -10.6690    4.4910 C   0  0  0  0  0  3  0  0  0  0  0  0
   -2.2720  -10.0110    4.3910 C   0  0  0  0  0  0  0  0  0  0  0  0
   -3.3730  -10.4520    3.1430 Cl  0  0  0  0  0  0  0  0  0  0  0  0
   -2.6080   -8.9930    5.2820 C   0  0  0  0  0  3  0  0  0  0  0  0
   -1.7170   -8.6330    6.2980 C   0  0  0  0  0  0  0  0  0  0  0  0
   -2.1830   -7.3460    7.3480 Cl  0  0  0  0  0  0  0  0  0  0  0  0
    2.2940   -7.5200    8.3530 C   0  0  2  0  0  3  0  0  0  0  0  0
    3.3310   -8.9350    9.9900 O   0  0  0  0  0  1  0  0  0  0  0  0
    3.3140   -8.6440    8.7550 C   0  0  0  0  0  0  0  0  0  0  0  0
    3.9150   -9.2320    7.8080 O   0  0  0  0  0  0  0  0  0  0  0  0
    1.5490   -6.8910    9.5500 C   0  0  0  0  0  2  0  0  0  0  0  0
    1.7080   -5.3830    9.6110 C   0  0  0  0  0  0  0  0  0  0  0  0
    2.4570   -4.7160    8.6330 C   0  0  0  0  0  3  0  0  0  0  0  0
    2.5900   -3.3270    8.6680 C   0  0  0  0  0  3  0  0  0  0  0  0
    1.9740   -2.5930    9.6800 C   0  0  0  0  0  3  0  0  0  0  0  0
    1.2220   -3.2460   10.6550 C   0  0  0  0  0  3  0  0  0  0  0  0
    1.0870   -4.6350   10.6210 C   0  0  0  0  0  3  0  0  0  0  0  0
    1.2740   -6.9820    6.0950 C   0  0  0  0  0  2  0  0  0  0  0  0
    2.3240   -7.2890    5.0700 C   0  0  0  0  0  0  0  0  0  0  0  0
    2.8190   -8.5130    4.6700 C   0  0  0  0  0  3  0  0  0  0  0  0
    3.7960   -8.3990    3.6390 C   0  0  0  0  0  3  0  0  0  0  0  0
    4.0460   -7.0870    3.2900 C   0  0  0  0  0  0  0  0  0  0  0  0
    3.1190   -6.0100    4.2480 S   0  0  0  0  0  0  0  0  0  0  0  0
    4.9440   -6.6030    2.2750 C   0  0  0  0  0  0  0  0  0  0  0  0
    4.7820   -6.6230    0.8960 C   0  0  0  0  0  3  0  0  0  0  0  0
    5.9290   -6.0210    0.3170 C   0  0  0  0  0  0  0  0  0  0  0  0
    6.3710   -5.7390   -0.9870 C   0  0  0  0  0  3  0  0  0  0  0  0
    7.6100   -5.1050   -1.1550 C   0  0  0  0  0  3  0  0  0  0  0  0
    8.3960   -4.7570   -0.0520 C   0  0  0  0  0  3  0  0  0  0  0  0
    7.9720   -5.0300    1.2520 C   0  0  0  0  0  3  0  0  0  0  0  0
    6.7370   -5.6610    1.3840 C   0  0  0  0  0  0  0  0  0  0  0  0
    6.1510   -6.0100    2.5600 O   0  0  0  0  0  0  0  0  0  0  0  0
  1  2  1  0  0  0  0
  1 12  1  0  0  0  0
  2  3  2  0  0  0  0
  4  2  1  0  0  0  0
  5  4  2  0  0  0  0
  6  5  1  0  0  0  0
  7  6  2  0  0  0  0
  7  9  1  0  0  0  0
  8  7  1  0  0  0  0
  9 10  2  0  0  0  0
 10  4  1  0  0  0  0
 10 11  1  0  0  0  0
 12 14  1  0  0  0  0
 12 16  1  1  0  0  0
 14 13  1  0  0  0  0
 15 14  2  0  0  0  0
 16 17  1  0  0  0  0
 17 22  1  0  0  0  0
 18 19  1  0  0  0  0
 18 17  2  0  0  0  0
 19 20  2  0  0  0  0
 20 21  1  0  0  0  0
 22 21  2  0  0  0  0
 23  1  1  0  0  0  0
 24 23  1  0  0  0  0
 25 24  2  0  0  0  0
 26 25  1  0  0  0  0
 27 26  2  0  0  0  0
 27 28  1  0  0  0  0
 28 24  1  0  0  0  0
 29 37  1  0  0  0  0
 29 27  1  0  0  0  0
 30 29  2  0  0  0  0
 31 30  1  0  0  0  0
 31 36  1  0  0  0  0
 32 31  2  0  0  0  0
 33 32  1  0  0  0  0
 33 34  2  0  0  0  0
 34 35  1  0  0  0  0
 35 36  2  0  0  0  0
 36 37  1  0  0  0  0
M  END
>  <minimizedAffinity>
-7.4802866

$$$$

 OpenBabel09132200273D

 37 41  0  0  1  0  0  0  0  0999 V2000
    2.5730  -11.3090    4.0440 N   0  0  0  0  0  0  0  0  0  0  0  0
    1.1920  -11.2880    3.8470 C   0  0  0  0  0  0  0  0  0  0  0  0
    0.5760  -12.0330    3.0890 O   0  0  0  0  0  0  0  0  0  0  0  0
    0.3640  -10.4040    4.6870 C   0  0  0  0  0  0  0  0  0  0  0  0
   -0.0070   -9.1580    4.1590 C   0  0  0  0  0  3  0  0  0  0  0  0
   -0.7750   -8.2800    4.9230 C   0  0  0  0  0  3  0  0  0  0  0  0
   -1.1520   -8.6400    6.2170 C   0  0  0  0  0  0  0  0  0  0  0  0
   -2.1040   -7.5570    7.1570 Cl  0  0  0  0  0  0  0  0  0  0  0  0
   -0.7550   -9.8620    6.7590 C   0  0  0  0  0  3  0  0  0  0  0  0
    0.0180  -10.7450    5.9980 C   0  0  0  0  0  0  0  0  0  0  0  0
    0.4980  -12.2260    6.7400 Cl  0  0  0  0  0  0  0  0  0  0  0  0
    3.3870  -12.2510    3.1960 C   0  0  2  0  0  3  0  0  0  0  0  0
    4.1820  -13.9390    4.7050 O   0  0  0  0  0  1  0  0  0  0  0  0
    4.5520  -13.0000    3.9360 C   0  0  0  0  0  0  0  0  0  0  0  0
    5.7330  -12.6880    3.6010 O   0  0  0  0  0  0  0  0  0  0  0  0
    3.8160  -11.5640    1.8820 C   0  0  0  0  0  2  0  0  0  0  0  0
    3.4770  -12.3870    0.6530 C   0  0  0  0  0  0  0  0  0  0  0  0
    2.4270  -11.9950   -0.1870 C   0  0  0  0  0  3  0  0  0  0  0  0
    2.1230  -12.7330   -1.3310 C   0  0  0  0  0  3  0  0  0  0  0  0
    2.8660  -13.8680   -1.6480 C   0  0  0  0  0  3  0  0  0  0  0  0
    3.9160  -14.2650   -0.8210 C   0  0  0  0  0  3  0  0  0  0  0  0
    4.2230  -13.5270    0.3240 C   0  0  0  0  0  3  0  0  0  0  0  0
    3.2860  -10.5630    5.0860 C   0  0  0  0  0  2  0  0  0  0  0  0
    3.3730   -9.0940    4.8020 C   0  0  0  0  0  0  0  0  0  0  0  0
    3.7820   -8.4520    3.6510 C   0  0  0  0  0  3  0  0  0  0  0  0
    3.6950   -7.0340    3.7540 C   0  0  0  0  0  3  0  0  0  0  0  0
    3.2440   -6.6200    4.9910 C   0  0  0  0  0  0  0  0  0  0  0  0
    2.9720   -7.9590    6.0250 S   0  0  0  0  0  0  0  0  0  0  0  0
    3.0090   -5.2710    5.4360 C   0  0  0  0  0  0  0  0  0  0  0  0
    2.4270   -4.2210    4.7400 C   0  0  0  0  0  3  0  0  0  0  0  0
    2.4030   -3.0920    5.6000 C   0  0  0  0  0  0  0  0  0  0  0  0
    1.9580   -1.7620    5.5060 C   0  0  0  0  0  3  0  0  0  0  0  0
    2.1130   -0.9220    6.6190 C   0  0  0  0  0  3  0  0  0  0  0  0
    2.6970   -1.3910    7.7990 C   0  0  0  0  0  3  0  0  0  0  0  0
    3.1450   -2.7110    7.9090 C   0  0  0  0  0  3  0  0  0  0  0  0
    2.9770   -3.5190    6.7870 C   0  0  0  0  0  0  0  0  0  0  0  0
    3.3440   -4.8240    6.6920 O   0  0  0  0  0  0  0  0  0  0  0  0
  1 23  1  0  0  0  0
  2  1  1  0  0  0  0
  2  4  1  0  0  0  0
  3  2  2  0  0  0  0
  4 10  1  0  0  0  0
  5  4  2  0  0  0  0
  5  6  1  0  0  0  0
  6  7  2  0  0  0  0
  7  9  1  0  0  0  0
  7  8  1  0  0  0  0
 10 11  1  0  0  0  0
 10  9  2  0  0  0  0
 12 16  1  6  0  0  0
 12 14  1  0  0  0  0
 12  1  1  0  0  0  0
 14 13  1  0  0  0  0
 15 14  2  0  0  0  0
 17 16  1  0  0  0  0
 18 17  2  0  0  0  0
 19 18  1  0  0  0  0
 20 19  2  0  0  0  0
 20 21  1  0  0  0  0
 21 22  2  0  0  0  0
 22 17  1  0  0  0  0
 24 23  1  0  0  0  0
 24 28  1  0  0  0  0
 25 26  1  0  0  0  0
 25 24  2  0  0  0  0
 26 27  2  0  0  0  0
 27 29  1  0  0  0  0
 27 28  1  0  0  0  0
 29 37  1  0  0  0  0
 30 29  2  0  0  0  0
 30 31  1  0  0  0  0
 31 36  1  0  0  0  0
 32 31  2  0  0  0  0
 32 33  1  0  0  0  0
 33 34  2  0  0  0  0
 34 35  1  0  0  0  0
 36 35  2  0  0  0  0
 37 36  1  0  0  0  0
M  END
>  <minimizedAffinity>
-7.47124243

$$$$

 OpenBabel09132200273D

 37 41  0  0  1  0  0  0  0  0999 V2000
    3.3150  -11.7650    3.7670 N   0  0  0  0  0  0  0  0  0  0  0  0
    4.4010  -11.3930    2.9740 C   0  0  0  0  0  0  0  0  0  0  0  0
    5.2650  -12.1600    2.5560 O   0  0  0  0  0  0  0  0  0  0  0  0
    4.4800  -10.0070    2.4770 C   0  0  0  0  0  0  0  0  0  0  0  0
    5.3600   -9.1290    3.1290 C   0  0  0  0  0  3  0  0  0  0  0  0
    5.4570   -7.8030    2.7060 C   0  0  0  0  0  3  0  0  0  0  0  0
    4.6630   -7.3560    1.6500 C   0  0  0  0  0  0  0  0  0  0  0  0
    4.7870   -5.7200    1.1270 Cl  0  0  0  0  0  0  0  0  0  0  0  0
    3.7610   -8.2160    1.0240 C   0  0  0  0  0  3  0  0  0  0  0  0
    3.6580   -9.5460    1.4460 C   0  0  0  0  0  0  0  0  0  0  0  0
    2.5030  -10.5470    0.6470 Cl  0  0  0  0  0  0  0  0  0  0  0  0
    3.2420  -13.1980    4.2270 C   0  0  2  0  0  3  0  0  0  0  0  0
    1.2040  -14.1760    3.4200 O   0  0  0  0  0  1  0  0  0  0  0  0
    2.4660  -14.1800    3.2780 C   0  0  0  0  0  0  0  0  0  0  0  0
    3.1470  -14.7730    2.3920 O   0  0  0  0  0  0  0  0  0  0  0  0
    2.8000  -13.2710    5.7040 C   0  0  0  0  0  2  0  0  0  0  0  0
    3.9530  -13.0700    6.6700 C   0  0  0  0  0  0  0  0  0  0  0  0
    5.2700  -13.0390    6.1940 C   0  0  0  0  0  3  0  0  0  0  0  0
    6.3350  -12.8320    7.0710 C   0  0  0  0  0  3  0  0  0  0  0  0
    6.0930  -12.6520    8.4320 C   0  0  0  0  0  3  0  0  0  0  0  0
    4.7860  -12.6770    8.9160 C   0  0  0  0  0  3  0  0  0  0  0  0
    3.7190  -12.8820    8.0390 C   0  0  0  0  0  3  0  0  0  0  0  0
    2.1810  -10.8990    4.1010 C   0  0  0  0  0  2  0  0  0  0  0  0
    2.5630   -9.7420    4.9760 C   0  0  0  0  0  0  0  0  0  0  0  0
    3.3380   -9.7320    6.1160 C   0  0  0  0  0  3  0  0  0  0  0  0
    3.5040   -8.4240    6.6550 C   0  0  0  0  0  3  0  0  0  0  0  0
    2.8300   -7.4630    5.9280 C   0  0  0  0  0  0  0  0  0  0  0  0
    1.9720   -8.1700    4.6240 S   0  0  0  0  0  0  0  0  0  0  0  0
    2.7980   -6.0430    6.1630 C   0  0  0  0  0  0  0  0  0  0  0  0
    2.7190   -5.0140    5.2350 C   0  0  0  0  0  3  0  0  0  0  0  0
    2.7040   -3.7880    5.9480 C   0  0  0  0  0  0  0  0  0  0  0  0
    2.6370   -2.4250    5.6100 C   0  0  0  0  0  3  0  0  0  0  0  0
    2.6430   -1.4760    6.6430 C   0  0  0  0  0  3  0  0  0  0  0  0
    2.7140   -1.8690    7.9820 C   0  0  0  0  0  3  0  0  0  0  0  0
    2.7820   -3.2200    8.3360 C   0  0  0  0  0  3  0  0  0  0  0  0
    2.7750   -4.1380    7.2880 C   0  0  0  0  0  0  0  0  0  0  0  0
    2.8330   -5.4890    7.4210 O   0  0  0  0  0  0  0  0  0  0  0  0
  1 23  1  0  0  0  0
  1 12  1  0  0  0  0
  2  1  1  0  0  0  0
  3  2  2  0  0  0  0
  4  2  1  0  0  0  0
  4  5  1  0  0  0  0
  6  5  2  0  0  0  0
  7  6  1  0  0  0  0
  8  7  1  0  0  0  0
  9 10  1  0  0  0  0
  9  7  2  0  0  0  0
 10  4  2  0  0  0  0
 11 10  1  0  0  0  0
 12 16  1  1  0  0  0
 14 13  1  0  0  0  0
 14 12  1  0  0  0  0
 15 14  2  0  0  0  0
 16 17  1  0  0  0  0
 17 22  1  0  0  0  0
 18 17  2  0  0  0  0
 18 19  1  0  0  0  0
 19 20  2  0  0  0  0
 20 21  1  0  0  0  0
 22 21  2  0  0  0  0
 23 24  1  0  0  0  0
 24 25  2  0  0  0  0
 25 26  1  0  0  0  0
 27 29  1  0  0  0  0
 27 26  2  0  0  0  0
 28 24  1  0  0  0  0
 28 27  1  0  0  0  0
 29 37  1  0  0  0  0
 30 31  1  0  0  0  0
 30 29  2  0  0  0  0
 31 36  1  0  0  0  0
 32 31  2  0  0  0  0
 32 33  1  0  0  0  0
 33 34  2  0  0  0  0
 34 35  1  0  0  0  0
 36 37  1  0  0  0  0
 36 35  2  0  0  0  0
M  END
>  <minimizedAffinity>
-7.43065834

$$$$

 OpenBabel09132200273D

 37 41  0  0  1  0  0  0  0  0999 V2000
    1.3500   -8.1300    7.1130 N   0  0  0  0  0  0  0  0  0  0  0  0
    0.5200   -9.2390    7.2780 C   0  0  0  0  0  0  0  0  0  0  0  0
    0.4760   -9.9450    8.2820 O   0  0  0  0  0  0  0  0  0  0  0  0
   -0.4810   -9.5420    6.2390 C   0  0  0  0  0  0  0  0  0  0  0  0
   -0.1470  -10.4960    5.2670 C   0  0  0  0  0  3  0  0  0  0  0  0
   -1.0550  -10.8040    4.2530 C   0  0  0  0  0  3  0  0  0  0  0  0
   -2.2820  -10.1440    4.2040 C   0  0  0  0  0  0  0  0  0  0  0  0
   -3.4030  -10.5270    2.9550 Cl  0  0  0  0  0  0  0  0  0  0  0  0
   -2.6040   -9.1680    5.1470 C   0  0  0  0  0  3  0  0  0  0  0  0
   -1.6960   -8.8550    6.1630 C   0  0  0  0  0  0  0  0  0  0  0  0
   -2.1450   -7.6190    7.2800 Cl  0  0  0  0  0  0  0  0  0  0  0  0
    2.3360   -7.8240    8.2100 C   0  0  2  0  0  3  0  0  0  0  0  0
    1.2580   -6.0440    9.4050 O   0  0  0  0  0  1  0  0  0  0  0  0
    2.3080   -6.3550    8.7630 C   0  0  0  0  0  0  0  0  0  0  0  0
    3.3680   -5.6760    8.6310 O   0  0  0  0  0  0  0  0  0  0  0  0
    3.7450   -8.3240    7.8260 C   0  0  0  0  0  2  0  0  0  0  0  0
    3.9330   -9.8070    8.0920 C   0  0  0  0  0  0  0  0  0  0  0  0
    4.1770  -10.6840    7.0280 C   0  0  0  0  0  3  0  0  0  0  0  0
    4.3740  -12.0460    7.2640 C   0  0  0  0  0  3  0  0  0  0  0  0
    4.3300  -12.5410    8.5660 C   0  0  0  0  0  3  0  0  0  0  0  0
    4.0930  -11.6750    9.6320 C   0  0  0  0  0  3  0  0  0  0  0  0
    3.8980  -10.3130    9.3980 C   0  0  0  0  0  3  0  0  0  0  0  0
    1.2670   -7.1730    6.0060 C   0  0  0  0  0  2  0  0  0  0  0  0
    2.2620   -7.4460    4.9180 C   0  0  0  0  0  0  0  0  0  0  0  0
    2.6090   -8.6470    4.3370 C   0  0  0  0  0  3  0  0  0  0  0  0
    3.5790   -8.4960    3.3040 C   0  0  0  0  0  3  0  0  0  0  0  0
    3.9710   -7.1840    3.1340 C   0  0  0  0  0  0  0  0  0  0  0  0
    3.1860   -6.1580    4.2590 S   0  0  0  0  0  0  0  0  0  0  0  0
    4.9050   -6.6620    2.1710 C   0  0  0  0  0  0  0  0  0  0  0  0
    4.8260   -6.6920    0.7850 C   0  0  0  0  0  3  0  0  0  0  0  0
    5.9770   -6.0410    0.2720 C   0  0  0  0  0  0  0  0  0  0  0  0
    6.4810   -5.7430   -1.0060 C   0  0  0  0  0  3  0  0  0  0  0  0
    7.7000   -5.0550   -1.1040 C   0  0  0  0  0  3  0  0  0  0  0  0
    8.4040   -4.6720    0.0410 C   0  0  0  0  0  3  0  0  0  0  0  0
    7.9170   -4.9610    1.3200 C   0  0  0  0  0  3  0  0  0  0  0  0
    6.7050   -5.6450    1.3830 C   0  0  0  0  0  0  0  0  0  0  0  0
    6.0670   -6.0170    2.5230 O   0  0  0  0  0  0  0  0  0  0  0  0
  1  2  1  0  0  0  0
  1 12  1  0  0  0  0
  2  3  2  0  0  0  0
  4  2  1  0  0  0  0
  5  4  2  0  0  0  0
  6  5  1  0  0  0  0
  7  6  2  0  0  0  0
  7  9  1  0  0  0  0
  8  7  1  0  0  0  0
  9 10  2  0  0  0  0
 10  4  1  0  0  0  0
 10 11  1  0  0  0  0
 12 16  1  6  0  0  0
 12 14  1  0  0  0  0
 14 13  1  0  0  0  0
 15 14  2  0  0  0  0
 16 17  1  0  0  0  0
 17 22  1  0  0  0  0
 18 19  1  0  0  0  0
 18 17  2  0  0  0  0
 19 20  2  0  0  0  0
 20 21  1  0  0  0  0
 22 21  2  0  0  0  0
 23  1  1  0  0  0  0
 24 23  1  0  0  0  0
 25 24  2  0  0  0  0
 26 25  1  0  0  0  0
 27 26  2  0  0  0  0
 27 28  1  0  0  0  0
 28 24  1  0  0  0  0
 29 37  1  0  0  0  0
 29 27  1  0  0  0  0
 30 29  2  0  0  0  0
 31 30  1  0  0  0  0
 31 36  1  0  0  0  0
 32 31  2  0  0  0  0
 33 32  1  0  0  0  0
 33 34  2  0  0  0  0
 34 35  1  0  0  0  0
 35 36  2  0  0  0  0
 36 37  1  0  0  0  0
M  END
>  <minimizedAffinity>
-7.39672613

$$$$

 OpenBabel09132200273D

 37 41  0  0  1  0  0  0  0  0999 V2000
   -0.1050  -11.7250    5.3590 N   0  0  0  0  0  0  0  0  0  0  0  0
   -0.3880  -11.0260    6.5330 C   0  0  0  0  0  0  0  0  0  0  0  0
    0.0840  -11.2820    7.6370 O   0  0  0  0  0  0  0  0  0  0  0  0
   -1.2140   -9.8080    6.4560 C   0  0  0  0  0  0  0  0  0  0  0  0
   -0.5550   -8.5690    6.4740 C   0  0  0  0  0  3  0  0  0  0  0  0
   -1.2950   -7.3870    6.4200 C   0  0  0  0  0  3  0  0  0  0  0  0
   -2.6870   -7.4480    6.3690 C   0  0  0  0  0  0  0  0  0  0  0  0
   -3.5990   -5.9890    6.2980 Cl  0  0  0  0  0  0  0  0  0  0  0  0
   -3.3470   -8.6760    6.3870 C   0  0  0  0  0  3  0  0  0  0  0  0
   -2.6100   -9.8630    6.4430 C   0  0  0  0  0  0  0  0  0  0  0  0
   -3.4900  -11.3460    6.4920 Cl  0  0  0  0  0  0  0  0  0  0  0  0
    0.7740  -12.9450    5.4650 C   0  0  2  0  0  3  0  0  0  0  0  0
   -0.9760  -14.5690    5.7060 O   0  0  0  0  0  0  0  0  0  0  0  0
    0.1350  -14.1850    6.1860 C   0  0  0  0  0  0  0  0  0  0  0  0
    0.8360  -14.7520    7.0740 O   0  0  0  0  0  1  0  0  0  0  0  0
    2.1710  -12.5620    5.9950 C   0  0  0  0  0  2  0  0  0  0  0  0
    3.2660  -12.7690    4.9640 C   0  0  0  0  0  0  0  0  0  0  0  0
    4.2750  -11.8100    4.8110 C   0  0  0  0  0  3  0  0  0  0  0  0
    5.2990  -12.0030    3.8820 C   0  0  0  0  0  3  0  0  0  0  0  0
    5.3240  -13.1570    3.1000 C   0  0  0  0  0  3  0  0  0  0  0  0
    4.3260  -14.1190    3.2490 C   0  0  0  0  0  3  0  0  0  0  0  0
    3.3030  -13.9290    4.1790 C   0  0  0  0  0  3  0  0  0  0  0  0
   -0.5060  -11.3080    4.0130 C   0  0  0  0  0  2  0  0  0  0  0  0
    0.6600  -11.0120    3.1170 C   0  0  0  0  0  0  0  0  0  0  0  0
    1.1670  -11.7580    2.0740 C   0  0  0  0  0  3  0  0  0  0  0  0
    2.2730  -11.1260    1.4350 C   0  0  0  0  0  3  0  0  0  0  0  0
    2.6030   -9.9200    2.0200 C   0  0  0  0  0  0  0  0  0  0  0  0
    1.5910   -9.5920    3.3630 S   0  0  0  0  0  0  0  0  0  0  0  0
    3.6390   -9.0040    1.6210 C   0  0  0  0  0  0  0  0  0  0  0  0
    4.8840   -8.8020    2.2000 C   0  0  0  0  0  3  0  0  0  0  0  0
    5.5560   -7.8050    1.4460 C   0  0  0  0  0  0  0  0  0  0  0  0
    6.8080   -7.1680    1.5050 C   0  0  0  0  0  3  0  0  0  0  0  0
    7.1140   -6.1990    0.5380 C   0  0  0  0  0  3  0  0  0  0  0  0
    6.1990   -5.8690   -0.4660 C   0  0  0  0  0  3  0  0  0  0  0  0
    4.9490   -6.4920   -0.5380 C   0  0  0  0  0  3  0  0  0  0  0  0
    4.6750   -7.4480    0.4370 C   0  0  0  0  0  0  0  0  0  0  0  0
    3.5240   -8.1640    0.5390 O   0  0  0  0  0  0  0  0  0  0  0  0
  1 12  1  0  0  0  0
  1  2  1  0  0  0  0
  2  3  2  0  0  0  0
  4  5  1  0  0  0  0
  4  2  1  0  0  0  0
  6  5  2  0  0  0  0
  7  9  2  0  0  0  0
  7  6  1  0  0  0  0
  8  7  1  0  0  0  0
  9 10  1  0  0  0  0
 10  4  2  0  0  0  0
 10 11  1  0  0  0  0
 12 16  1  1  0  0  0
 12 14  1  0  0  0  0
 13 14  2  0  0  0  0
 14 15  1  0  0  0  0
 17 16  1  0  0  0  0
 18 17  1  0  0  0  0
 19 18  2  0  0  0  0
 20 21  2  0  0  0  0
 20 19  1  0  0  0  0
 21 22  1  0  0  0  0
 22 17  2  0  0  0  0
 23  1  1  0  0  0  0
 24 28  1  0  0  0  0
 24 23  1  0  0  0  0
 25 24  2  0  0  0  0
 26 27  2  0  0  0  0
 26 25  1  0  0  0  0
 27 28  1  0  0  0  0
 29 27  1  0  0  0  0
 29 30  2  0  0  0  0
 31 32  1  0  0  0  0
 31 30  1  0  0  0  0
 33 32  2  0  0  0  0
 34 33  1  0  0  0  0
 35 34  2  0  0  0  0
 35 36  1  0  0  0  0
 36 37  1  0  0  0  0
 36 31  2  0  0  0  0
 37 29  1  0  0  0  0
M  END
>  <minimizedAffinity>
-7.37390661

$$$$
