
 OpenBabel09132204463D

 37 41  0  0  1  0  0  0  0  0999 V2000
   -0.1050  -11.7250    5.3590 N   0  0  0  0  0  0  0  0  0  0  0  0
   -0.3880  -11.0260    6.5330 C   0  0  0  0  0  0  0  0  0  0  0  0
    0.0840  -11.2820    7.6370 O   0  0  0  0  0  0  0  0  0  0  0  0
   -1.2140   -9.8080    6.4560 C   0  0  0  0  0  0  0  0  0  0  0  0
   -0.5550   -8.5690    6.4740 C   0  0  0  0  0  3  0  0  0  0  0  0
   -1.2950   -7.3870    6.4200 C   0  0  0  0  0  3  0  0  0  0  0  0
   -2.6870   -7.4480    6.3690 C   0  0  0  0  0  0  0  0  0  0  0  0
   -3.5990   -5.9890    6.2980 Cl  0  0  0  0  0  0  0  0  0  0  0  0
   -3.3470   -8.6760    6.3870 C   0  0  0  0  0  3  0  0  0  0  0  0
   -2.6100   -9.8630    6.4430 C   0  0  0  0  0  0  0  0  0  0  0  0
   -3.4900  -11.3460    6.4920 Cl  0  0  0  0  0  0  0  0  0  0  0  0
    0.7740  -12.9450    5.4650 C   0  0  2  0  0  3  0  0  0  0  0  0
   -0.9760  -14.5690    5.7060 O   0  0  0  0  0  0  0  0  0  0  0  0
    0.1350  -14.1850    6.1860 C   0  0  0  0  0  0  0  0  0  0  0  0
    0.8360  -14.7520    7.0740 O   0  0  0  0  0  1  0  0  0  0  0  0
    2.1710  -12.5620    5.9950 C   0  0  0  0  0  2  0  0  0  0  0  0
    3.2660  -12.7690    4.9640 C   0  0  0  0  0  0  0  0  0  0  0  0
    4.2750  -11.8100    4.8110 C   0  0  0  0  0  3  0  0  0  0  0  0
    5.2990  -12.0030    3.8820 C   0  0  0  0  0  3  0  0  0  0  0  0
    5.3240  -13.1570    3.1000 C   0  0  0  0  0  3  0  0  0  0  0  0
    4.3260  -14.1190    3.2490 C   0  0  0  0  0  3  0  0  0  0  0  0
    3.3030  -13.9290    4.1790 C   0  0  0  0  0  3  0  0  0  0  0  0
   -0.5060  -11.3080    4.0130 C   0  0  0  0  0  2  0  0  0  0  0  0
    0.6600  -11.0120    3.1170 C   0  0  0  0  0  0  0  0  0  0  0  0
    1.1670  -11.7580    2.0740 C   0  0  0  0  0  3  0  0  0  0  0  0
    2.2730  -11.1260    1.4350 C   0  0  0  0  0  3  0  0  0  0  0  0
    2.6030   -9.9200    2.0200 C   0  0  0  0  0  0  0  0  0  0  0  0
    1.5910   -9.5920    3.3630 S   0  0  0  0  0  0  0  0  0  0  0  0
    3.6390   -9.0040    1.6210 C   0  0  0  0  0  0  0  0  0  0  0  0
    4.8840   -8.8020    2.2000 C   0  0  0  0  0  3  0  0  0  0  0  0
    5.5560   -7.8050    1.4460 C   0  0  0  0  0  0  0  0  0  0  0  0
    6.8080   -7.1680    1.5050 C   0  0  0  0  0  3  0  0  0  0  0  0
    7.1140   -6.1990    0.5380 C   0  0  0  0  0  3  0  0  0  0  0  0
    6.1990   -5.8690   -0.4660 C   0  0  0  0  0  3  0  0  0  0  0  0
    4.9490   -6.4920   -0.5380 C   0  0  0  0  0  3  0  0  0  0  0  0
    4.6750   -7.4480    0.4370 C   0  0  0  0  0  0  0  0  0  0  0  0
    3.5240   -8.1640    0.5390 O   0  0  0  0  0  0  0  0  0  0  0  0
  1 12  1  0  0  0  0
  1  2  1  0  0  0  0
  2  3  2  0  0  0  0
  4  5  1  0  0  0  0
  4  2  1  0  0  0  0
  6  5  2  0  0  0  0
  7  9  2  0  0  0  0
  7  6  1  0  0  0  0
  8  7  1  0  0  0  0
  9 10  1  0  0  0  0
 10  4  2  0  0  0  0
 10 11  1  0  0  0  0
 12 16  1  1  0  0  0
 12 14  1  0  0  0  0
 13 14  2  0  0  0  0
 14 15  1  0  0  0  0
 17 16  1  0  0  0  0
 18 17  1  0  0  0  0
 19 18  2  0  0  0  0
 20 21  2  0  0  0  0
 20 19  1  0  0  0  0
 21 22  1  0  0  0  0
 22 17  2  0  0  0  0
 23  1  1  0  0  0  0
 24 28  1  0  0  0  0
 24 23  1  0  0  0  0
 25 24  2  0  0  0  0
 26 27  2  0  0  0  0
 26 25  1  0  0  0  0
 27 28  1  0  0  0  0
 29 27  1  0  0  0  0
 29 30  2  0  0  0  0
 31 32  1  0  0  0  0
 31 30  1  0  0  0  0
 33 32  2  0  0  0  0
 34 33  1  0  0  0  0
 35 34  2  0  0  0  0
 35 36  1  0  0  0  0
 36 37  1  0  0  0  0
 36 31  2  0  0  0  0
 37 29  1  0  0  0  0
M  END
>  <minimizedAffinity>
-7.37390661

$$$$
