
 OpenBabel09132204463D

 37 41  0  0  1  0  0  0  0  0999 V2000
    1.3250   -7.8760    7.2560 N   0  0  0  0  0  0  0  0  0  0  0  0
    0.4800   -8.9660    7.4660 C   0  0  0  0  0  0  0  0  0  0  0  0
    0.4090   -9.6140    8.5070 O   0  0  0  0  0  0  0  0  0  0  0  0
   -0.5040   -9.3160    6.4260 C   0  0  0  0  0  0  0  0  0  0  0  0
   -0.1550  -10.3150    5.5040 C   0  0  0  0  0  3  0  0  0  0  0  0
   -1.0460  -10.6690    4.4910 C   0  0  0  0  0  3  0  0  0  0  0  0
   -2.2720  -10.0110    4.3910 C   0  0  0  0  0  0  0  0  0  0  0  0
   -3.3730  -10.4520    3.1430 Cl  0  0  0  0  0  0  0  0  0  0  0  0
   -2.6080   -8.9930    5.2820 C   0  0  0  0  0  3  0  0  0  0  0  0
   -1.7170   -8.6330    6.2980 C   0  0  0  0  0  0  0  0  0  0  0  0
   -2.1830   -7.3460    7.3480 Cl  0  0  0  0  0  0  0  0  0  0  0  0
    2.2940   -7.5200    8.3530 C   0  0  2  0  0  3  0  0  0  0  0  0
    3.3310   -8.9350    9.9900 O   0  0  0  0  0  1  0  0  0  0  0  0
    3.3140   -8.6440    8.7550 C   0  0  0  0  0  0  0  0  0  0  0  0
    3.9150   -9.2320    7.8080 O   0  0  0  0  0  0  0  0  0  0  0  0
    1.5490   -6.8910    9.5500 C   0  0  0  0  0  2  0  0  0  0  0  0
    1.7080   -5.3830    9.6110 C   0  0  0  0  0  0  0  0  0  0  0  0
    2.4570   -4.7160    8.6330 C   0  0  0  0  0  3  0  0  0  0  0  0
    2.5900   -3.3270    8.6680 C   0  0  0  0  0  3  0  0  0  0  0  0
    1.9740   -2.5930    9.6800 C   0  0  0  0  0  3  0  0  0  0  0  0
    1.2220   -3.2460   10.6550 C   0  0  0  0  0  3  0  0  0  0  0  0
    1.0870   -4.6350   10.6210 C   0  0  0  0  0  3  0  0  0  0  0  0
    1.2740   -6.9820    6.0950 C   0  0  0  0  0  2  0  0  0  0  0  0
    2.3240   -7.2890    5.0700 C   0  0  0  0  0  0  0  0  0  0  0  0
    2.8190   -8.5130    4.6700 C   0  0  0  0  0  3  0  0  0  0  0  0
    3.7960   -8.3990    3.6390 C   0  0  0  0  0  3  0  0  0  0  0  0
    4.0460   -7.0870    3.2900 C   0  0  0  0  0  0  0  0  0  0  0  0
    3.1190   -6.0100    4.2480 S   0  0  0  0  0  0  0  0  0  0  0  0
    4.9440   -6.6030    2.2750 C   0  0  0  0  0  0  0  0  0  0  0  0
    4.7820   -6.6230    0.8960 C   0  0  0  0  0  3  0  0  0  0  0  0
    5.9290   -6.0210    0.3170 C   0  0  0  0  0  0  0  0  0  0  0  0
    6.3710   -5.7390   -0.9870 C   0  0  0  0  0  3  0  0  0  0  0  0
    7.6100   -5.1050   -1.1550 C   0  0  0  0  0  3  0  0  0  0  0  0
    8.3960   -4.7570   -0.0520 C   0  0  0  0  0  3  0  0  0  0  0  0
    7.9720   -5.0300    1.2520 C   0  0  0  0  0  3  0  0  0  0  0  0
    6.7370   -5.6610    1.3840 C   0  0  0  0  0  0  0  0  0  0  0  0
    6.1510   -6.0100    2.5600 O   0  0  0  0  0  0  0  0  0  0  0  0
  1  2  1  0  0  0  0
  1 12  1  0  0  0  0
  2  3  2  0  0  0  0
  4  2  1  0  0  0  0
  5  4  2  0  0  0  0
  6  5  1  0  0  0  0
  7  6  2  0  0  0  0
  7  9  1  0  0  0  0
  8  7  1  0  0  0  0
  9 10  2  0  0  0  0
 10  4  1  0  0  0  0
 10 11  1  0  0  0  0
 12 14  1  0  0  0  0
 12 16  1  1  0  0  0
 14 13  1  0  0  0  0
 15 14  2  0  0  0  0
 16 17  1  0  0  0  0
 17 22  1  0  0  0  0
 18 19  1  0  0  0  0
 18 17  2  0  0  0  0
 19 20  2  0  0  0  0
 20 21  1  0  0  0  0
 22 21  2  0  0  0  0
 23  1  1  0  0  0  0
 24 23  1  0  0  0  0
 25 24  2  0  0  0  0
 26 25  1  0  0  0  0
 27 26  2  0  0  0  0
 27 28  1  0  0  0  0
 28 24  1  0  0  0  0
 29 37  1  0  0  0  0
 29 27  1  0  0  0  0
 30 29  2  0  0  0  0
 31 30  1  0  0  0  0
 31 36  1  0  0  0  0
 32 31  2  0  0  0  0
 33 32  1  0  0  0  0
 33 34  2  0  0  0  0
 34 35  1  0  0  0  0
 35 36  2  0  0  0  0
 36 37  1  0  0  0  0
M  END
>  <minimizedAffinity>
-7.4802866

$$$$
