
 OpenBabel09132204463D

 37 41  0  0  1  0  0  0  0  0999 V2000
    0.6040  -10.2150    5.5260 N   0  0  0  0  0  0  0  0  0  0  0  0
    1.1550  -10.7510    6.6900 C   0  0  0  0  0  0  0  0  0  0  0  0
    0.5760  -10.8370    7.7700 O   0  0  0  0  0  0  0  0  0  0  0  0
    2.4840  -11.3850    6.6250 C   0  0  0  0  0  0  0  0  0  0  0  0
    2.5620  -12.6910    6.1170 C   0  0  0  0  0  3  0  0  0  0  0  0
    3.7960  -13.3390    6.0510 C   0  0  0  0  0  3  0  0  0  0  0  0
    4.9410  -12.6880    6.5100 C   0  0  0  0  0  0  0  0  0  0  0  0
    6.4640  -13.4880    6.4240 Cl  0  0  0  0  0  0  0  0  0  0  0  0
    4.8630  -11.4050    7.0490 C   0  0  0  0  0  3  0  0  0  0  0  0
    3.6280  -10.7520    7.1190 C   0  0  0  0  0  0  0  0  0  0  0  0
    3.5980   -9.1770    7.8220 Cl  0  0  0  0  0  0  0  0  0  0  0  0
   -0.7720   -9.6080    5.6170 C   0  0  2  0  0  3  0  0  0  0  0  0
   -2.0260  -11.2720    4.4260 O   0  0  0  0  0  1  0  0  0  0  0  0
   -1.7780  -10.0280    4.4880 C   0  0  0  0  0  0  0  0  0  0  0  0
   -2.3360   -9.0920    3.8440 O   0  0  0  0  0  0  0  0  0  0  0  0
   -0.6780   -8.0840    5.8400 C   0  0  0  0  0  2  0  0  0  0  0  0
   -0.5170   -7.7150    7.3030 C   0  0  0  0  0  0  0  0  0  0  0  0
    0.6300   -7.0350    7.7330 C   0  0  0  0  0  3  0  0  0  0  0  0
    0.7770   -6.6710    9.0720 C   0  0  0  0  0  3  0  0  0  0  0  0
   -0.2220   -6.9820    9.9930 C   0  0  0  0  0  3  0  0  0  0  0  0
   -1.3690   -7.6540    9.5750 C   0  0  0  0  0  3  0  0  0  0  0  0
   -1.5190   -8.0170    8.2350 C   0  0  0  0  0  3  0  0  0  0  0  0
    1.2140  -10.2890    4.1950 C   0  0  0  0  0  2  0  0  0  0  0  0
    2.1650   -9.1630    3.9210 C   0  0  0  0  0  0  0  0  0  0  0  0
    2.5410   -8.1210    4.7420 C   0  0  0  0  0  3  0  0  0  0  0  0
    3.4990   -7.2610    4.1330 C   0  0  0  0  0  3  0  0  0  0  0  0
    3.8160   -7.6480    2.8460 C   0  0  0  0  0  0  0  0  0  0  0  0
    2.9150   -9.0300    2.3830 S   0  0  0  0  0  0  0  0  0  0  0  0
    4.7600   -7.0340    1.9490 C   0  0  0  0  0  0  0  0  0  0  0  0
    4.6900   -6.9170    0.5680 C   0  0  0  0  0  3  0  0  0  0  0  0
    5.8480   -6.2230    0.1330 C   0  0  0  0  0  0  0  0  0  0  0  0
    6.3630   -5.7950   -1.1030 C   0  0  0  0  0  3  0  0  0  0  0  0
    7.5870   -5.1090   -1.1190 C   0  0  0  0  0  3  0  0  0  0  0  0
    8.2850   -4.8530    0.0640 C   0  0  0  0  0  3  0  0  0  0  0  0
    7.7870   -5.2720    1.3020 C   0  0  0  0  0  3  0  0  0  0  0  0
    6.5710   -5.9520    1.2840 C   0  0  0  0  0  0  0  0  0  0  0  0
    5.9230   -6.4380    2.3750 O   0  0  0  0  0  0  0  0  0  0  0  0
  1 12  1  0  0  0  0
  1  2  1  0  0  0  0
  2  3  2  0  0  0  0
  4  2  1  0  0  0  0
  4 10  1  0  0  0  0
  5  4  2  0  0  0  0
  6  5  1  0  0  0  0
  6  7  2  0  0  0  0
  7  9  1  0  0  0  0
  8  7  1  0  0  0  0
  9 10  2  0  0  0  0
 10 11  1  0  0  0  0
 12 16  1  6  0  0  0
 13 14  1  0  0  0  0
 14 12  1  0  0  0  0
 15 14  2  0  0  0  0
 16 17  1  0  0  0  0
 17 18  2  0  0  0  0
 17 22  1  0  0  0  0
 18 19  1  0  0  0  0
 19 20  2  0  0  0  0
 21 20  1  0  0  0  0
 22 21  2  0  0  0  0
 23  1  1  0  0  0  0
 24 23  1  0  0  0  0
 24 25  2  0  0  0  0
 26 25  1  0  0  0  0
 27 26  2  0  0  0  0
 28 27  1  0  0  0  0
 28 24  1  0  0  0  0
 29 37  1  0  0  0  0
 29 27  1  0  0  0  0
 30 29  2  0  0  0  0
 31 30  1  0  0  0  0
 31 36  1  0  0  0  0
 32 31  2  0  0  0  0
 33 32  1  0  0  0  0
 33 34  2  0  0  0  0
 34 35  1  0  0  0  0
 36 35  2  0  0  0  0
 36 37  1  0  0  0  0
M  END
>  <minimizedAffinity>
-7.67553997

$$$$
