
 OpenBabel09132204463D

 37 41  0  0  1  0  0  0  0  0999 V2000
    3.0100  -11.7760    3.7900 N   0  0  0  0  0  0  0  0  0  0  0  0
    1.6500  -12.0580    3.9160 C   0  0  0  0  0  0  0  0  0  0  0  0
    1.1170  -13.1190    3.6010 O   0  0  0  0  0  0  0  0  0  0  0  0
    0.7770  -11.0790    4.5890 C   0  0  0  0  0  0  0  0  0  0  0  0
    0.1950  -10.0730    3.8040 C   0  0  0  0  0  3  0  0  0  0  0  0
   -0.6240   -9.1130    4.3980 C   0  0  0  0  0  3  0  0  0  0  0  0
   -0.8420   -9.1510    5.7760 C   0  0  0  0  0  0  0  0  0  0  0  0
   -1.8570   -7.9680    6.5080 Cl  0  0  0  0  0  0  0  0  0  0  0  0
   -0.2360  -10.1270    6.5650 C   0  0  0  0  0  3  0  0  0  0  0  0
    0.5880  -11.0900    5.9740 C   0  0  0  0  0  0  0  0  0  0  0  0
    1.3280  -12.2520    7.0120 Cl  0  0  0  0  0  0  0  0  0  0  0  0
    3.8830  -12.8130    3.1320 C   0  0  2  0  0  3  0  0  0  0  0  0
    4.4000  -14.0710    5.1080 O   0  0  0  0  0  1  0  0  0  0  0  0
    4.9080  -13.5400    4.0730 C   0  0  0  0  0  0  0  0  0  0  0  0
    6.0980  -13.6360    3.6530 O   0  0  0  0  0  0  0  0  0  0  0  0
    4.5080  -12.2520    1.8370 C   0  0  0  0  0  2  0  0  0  0  0  0
    3.8070  -12.7490    0.5850 C   0  0  0  0  0  0  0  0  0  0  0  0
    4.1890  -13.9640    0.0030 C   0  0  0  0  0  3  0  0  0  0  0  0
    3.5350  -14.4400   -1.1340 C   0  0  0  0  0  3  0  0  0  0  0  0
    2.4920  -13.7070   -1.6980 C   0  0  0  0  0  3  0  0  0  0  0  0
    2.1010  -12.4990   -1.1230 C   0  0  0  0  0  3  0  0  0  0  0  0
    2.7530  -12.0220    0.0160 C   0  0  0  0  0  3  0  0  0  0  0  0
    3.6800  -10.5950    4.3430 C   0  0  0  0  0  2  0  0  0  0  0  0
    3.9900   -9.5560    3.3080 C   0  0  0  0  0  0  0  0  0  0  0  0
    3.1840   -9.0580    2.3050 C   0  0  0  0  0  3  0  0  0  0  0  0
    3.8290   -8.0490    1.5340 C   0  0  0  0  0  3  0  0  0  0  0  0
    5.1250   -7.8130    1.9480 C   0  0  0  0  0  0  0  0  0  0  0  0
    5.5530   -8.8510    3.2420 S   0  0  0  0  0  0  0  0  0  0  0  0
    6.0550   -6.8500    1.4210 C   0  0  0  0  0  0  0  0  0  0  0  0
    6.4490   -6.6590    0.1040 C   0  0  0  0  0  3  0  0  0  0  0  0
    7.3740   -5.5830    0.0800 C   0  0  0  0  0  0  0  0  0  0  0  0
    8.1180   -4.9130   -0.9070 C   0  0  0  0  0  3  0  0  0  0  0  0
    8.9510   -3.8540   -0.5180 C   0  0  0  0  0  3  0  0  0  0  0  0
    9.0450   -3.4670    0.8220 C   0  0  0  0  0  3  0  0  0  0  0  0
    8.3120   -4.1230    1.8170 C   0  0  0  0  0  3  0  0  0  0  0  0
    7.4960   -5.1700    1.3980 C   0  0  0  0  0  0  0  0  0  0  0  0
    6.7080   -5.9280    2.2050 O   0  0  0  0  0  0  0  0  0  0  0  0
  1  2  1  0  0  0  0
  1 23  1  0  0  0  0
  2  4  1  0  0  0  0
  3  2  2  0  0  0  0
  4 10  1  0  0  0  0
  5  6  1  0  0  0  0
  5  4  2  0  0  0  0
  6  7  2  0  0  0  0
  7  8  1  0  0  0  0
  7  9  1  0  0  0  0
 10  9  2  0  0  0  0
 10 11  1  0  0  0  0
 12 16  1  6  0  0  0
 12  1  1  0  0  0  0
 12 14  1  0  0  0  0
 14 13  1  0  0  0  0
 15 14  2  0  0  0  0
 17 16  1  0  0  0  0
 18 17  2  0  0  0  0
 19 18  1  0  0  0  0
 20 19  2  0  0  0  0
 20 21  1  0  0  0  0
 21 22  2  0  0  0  0
 22 17  1  0  0  0  0
 24 23  1  0  0  0  0
 25 24  2  0  0  0  0
 26 27  2  0  0  0  0
 26 25  1  0  0  0  0
 27 28  1  0  0  0  0
 28 24  1  0  0  0  0
 29 27  1  0  0  0  0
 29 37  1  0  0  0  0
 30 29  2  0  0  0  0
 31 30  1  0  0  0  0
 31 36  1  0  0  0  0
 32 33  1  0  0  0  0
 32 31  2  0  0  0  0
 33 34  2  0  0  0  0
 34 35  1  0  0  0  0
 36 35  2  0  0  0  0
 36 37  1  0  0  0  0
M  END
>  <minimizedAffinity>
-7.88437128

$$$$
