
 OpenBabel09132204463D

 37 41  0  0  1  0  0  0  0  0999 V2000
    1.2550  -12.1090    4.8120 N   0  0  0  0  0  0  0  0  0  0  0  0
    2.0690  -13.1710    4.4170 C   0  0  0  0  0  0  0  0  0  0  0  0
    2.2380  -14.2060    5.0570 O   0  0  0  0  0  0  0  0  0  0  0  0
    2.6900  -13.1360    3.0810 C   0  0  0  0  0  0  0  0  0  0  0  0
    1.9300  -13.5970    1.9950 C   0  0  0  0  0  3  0  0  0  0  0  0
    2.4800  -13.5990    0.7130 C   0  0  0  0  0  3  0  0  0  0  0  0
    3.7910  -13.1600    0.5250 C   0  0  0  0  0  0  0  0  0  0  0  0
    4.4670  -13.1600   -1.0590 Cl  0  0  0  0  0  0  0  0  0  0  0  0
    4.5620  -12.7360    1.6060 C   0  0  0  0  0  3  0  0  0  0  0  0
    4.0150  -12.7350    2.8940 C   0  0  0  0  0  0  0  0  0  0  0  0
    5.0320  -12.2240    4.1900 Cl  0  0  0  0  0  0  0  0  0  0  0  0
    0.6050  -12.1920    6.1690 C   0  0  2  0  0  3  0  0  0  0  0  0
   -1.6310  -12.9350    5.7110 O   0  0  0  0  0  0  0  0  0  0  0  0
   -0.9510  -11.9780    6.1930 C   0  0  0  0  0  0  0  0  0  0  0  0
   -1.3750  -10.9500    6.7980 O   0  0  0  0  0  1  0  0  0  0  0  0
    1.3740  -11.3300    7.1920 C   0  0  0  0  0  2  0  0  0  0  0  0
    2.6180  -12.0200    7.7210 C   0  0  0  0  0  0  0  0  0  0  0  0
    2.5070  -13.2350    8.4090 C   0  0  0  0  0  3  0  0  0  0  0  0
    3.6460  -13.8890    8.8800 C   0  0  0  0  0  3  0  0  0  0  0  0
    4.9070  -13.3350    8.6650 C   0  0  0  0  0  3  0  0  0  0  0  0
    5.0290  -12.1280    7.9780 C   0  0  0  0  0  3  0  0  0  0  0  0
    3.8900  -11.4740    7.5040 C   0  0  0  0  0  3  0  0  0  0  0  0
    0.8960  -10.9650    3.9690 C   0  0  0  0  0  2  0  0  0  0  0  0
    2.0090   -9.9730    3.8200 C   0  0  0  0  0  0  0  0  0  0  0  0
    2.7650   -9.3580    4.7960 C   0  0  0  0  0  3  0  0  0  0  0  0
    3.7600   -8.4930    4.2560 C   0  0  0  0  0  3  0  0  0  0  0  0
    3.7270   -8.4440    2.8770 C   0  0  0  0  0  0  0  0  0  0  0  0
    2.4610   -9.4200    2.2590 S   0  0  0  0  0  0  0  0  0  0  0  0
    4.5960   -7.7030    2.0020 C   0  0  0  0  0  0  0  0  0  0  0  0
    4.4020   -7.3690    0.6690 C   0  0  0  0  0  3  0  0  0  0  0  0
    5.5300   -6.6230    0.2390 C   0  0  0  0  0  0  0  0  0  0  0  0
    5.9370   -6.0090   -0.9580 C   0  0  0  0  0  3  0  0  0  0  0  0
    7.1680   -5.3380   -0.9830 C   0  0  0  0  0  3  0  0  0  0  0  0
    7.9780   -5.2760    0.1550 C   0  0  0  0  0  3  0  0  0  0  0  0
    7.5880   -5.8810    1.3540 C   0  0  0  0  0  3  0  0  0  0  0  0
    6.3610   -6.5410    1.3450 C   0  0  0  0  0  0  0  0  0  0  0  0
    5.8070   -7.1880    2.4030 O   0  0  0  0  0  0  0  0  0  0  0  0
  1 12  1  0  0  0  0
  2  1  1  0  0  0  0
  2  3  2  0  0  0  0
  4  2  1  0  0  0  0
  5  4  2  0  0  0  0
  6  5  1  0  0  0  0
  7  6  2  0  0  0  0
  7  9  1  0  0  0  0
  8  7  1  0  0  0  0
  9 10  2  0  0  0  0
 10  4  1  0  0  0  0
 10 11  1  0  0  0  0
 12 14  1  0  0  0  0
 12 16  1  1  0  0  0
 13 14  2  0  0  0  0
 14 15  1  0  0  0  0
 16 17  1  0  0  0  0
 17 18  1  0  0  0  0
 18 19  2  0  0  0  0
 20 19  1  0  0  0  0
 21 20  2  0  0  0  0
 22 17  2  0  0  0  0
 22 21  1  0  0  0  0
 23  1  1  0  0  0  0
 24 23  1  0  0  0  0
 24 25  2  0  0  0  0
 26 25  1  0  0  0  0
 27 26  2  0  0  0  0
 28 27  1  0  0  0  0
 28 24  1  0  0  0  0
 29 37  1  0  0  0  0
 29 27  1  0  0  0  0
 30 29  2  0  0  0  0
 31 30  1  0  0  0  0
 31 36  1  0  0  0  0
 32 31  2  0  0  0  0
 33 32  1  0  0  0  0
 33 34  2  0  0  0  0
 34 35  1  0  0  0  0
 36 35  2  0  0  0  0
 36 37  1  0  0  0  0
M  END
>  <minimizedAffinity>
-7.52037001

$$$$
