
 OpenBabel09132204463D

 37 41  0  0  1  0  0  0  0  0999 V2000
    2.5730  -11.3090    4.0440 N   0  0  0  0  0  0  0  0  0  0  0  0
    1.1920  -11.2880    3.8470 C   0  0  0  0  0  0  0  0  0  0  0  0
    0.5760  -12.0330    3.0890 O   0  0  0  0  0  0  0  0  0  0  0  0
    0.3640  -10.4040    4.6870 C   0  0  0  0  0  0  0  0  0  0  0  0
   -0.0070   -9.1580    4.1590 C   0  0  0  0  0  3  0  0  0  0  0  0
   -0.7750   -8.2800    4.9230 C   0  0  0  0  0  3  0  0  0  0  0  0
   -1.1520   -8.6400    6.2170 C   0  0  0  0  0  0  0  0  0  0  0  0
   -2.1040   -7.5570    7.1570 Cl  0  0  0  0  0  0  0  0  0  0  0  0
   -0.7550   -9.8620    6.7590 C   0  0  0  0  0  3  0  0  0  0  0  0
    0.0180  -10.7450    5.9980 C   0  0  0  0  0  0  0  0  0  0  0  0
    0.4980  -12.2260    6.7400 Cl  0  0  0  0  0  0  0  0  0  0  0  0
    3.3870  -12.2510    3.1960 C   0  0  2  0  0  3  0  0  0  0  0  0
    4.1820  -13.9390    4.7050 O   0  0  0  0  0  1  0  0  0  0  0  0
    4.5520  -13.0000    3.9360 C   0  0  0  0  0  0  0  0  0  0  0  0
    5.7330  -12.6880    3.6010 O   0  0  0  0  0  0  0  0  0  0  0  0
    3.8160  -11.5640    1.8820 C   0  0  0  0  0  2  0  0  0  0  0  0
    3.4770  -12.3870    0.6530 C   0  0  0  0  0  0  0  0  0  0  0  0
    2.4270  -11.9950   -0.1870 C   0  0  0  0  0  3  0  0  0  0  0  0
    2.1230  -12.7330   -1.3310 C   0  0  0  0  0  3  0  0  0  0  0  0
    2.8660  -13.8680   -1.6480 C   0  0  0  0  0  3  0  0  0  0  0  0
    3.9160  -14.2650   -0.8210 C   0  0  0  0  0  3  0  0  0  0  0  0
    4.2230  -13.5270    0.3240 C   0  0  0  0  0  3  0  0  0  0  0  0
    3.2860  -10.5630    5.0860 C   0  0  0  0  0  2  0  0  0  0  0  0
    3.3730   -9.0940    4.8020 C   0  0  0  0  0  0  0  0  0  0  0  0
    3.7820   -8.4520    3.6510 C   0  0  0  0  0  3  0  0  0  0  0  0
    3.6950   -7.0340    3.7540 C   0  0  0  0  0  3  0  0  0  0  0  0
    3.2440   -6.6200    4.9910 C   0  0  0  0  0  0  0  0  0  0  0  0
    2.9720   -7.9590    6.0250 S   0  0  0  0  0  0  0  0  0  0  0  0
    3.0090   -5.2710    5.4360 C   0  0  0  0  0  0  0  0  0  0  0  0
    2.4270   -4.2210    4.7400 C   0  0  0  0  0  3  0  0  0  0  0  0
    2.4030   -3.0920    5.6000 C   0  0  0  0  0  0  0  0  0  0  0  0
    1.9580   -1.7620    5.5060 C   0  0  0  0  0  3  0  0  0  0  0  0
    2.1130   -0.9220    6.6190 C   0  0  0  0  0  3  0  0  0  0  0  0
    2.6970   -1.3910    7.7990 C   0  0  0  0  0  3  0  0  0  0  0  0
    3.1450   -2.7110    7.9090 C   0  0  0  0  0  3  0  0  0  0  0  0
    2.9770   -3.5190    6.7870 C   0  0  0  0  0  0  0  0  0  0  0  0
    3.3440   -4.8240    6.6920 O   0  0  0  0  0  0  0  0  0  0  0  0
  1 23  1  0  0  0  0
  2  1  1  0  0  0  0
  2  4  1  0  0  0  0
  3  2  2  0  0  0  0
  4 10  1  0  0  0  0
  5  4  2  0  0  0  0
  5  6  1  0  0  0  0
  6  7  2  0  0  0  0
  7  9  1  0  0  0  0
  7  8  1  0  0  0  0
 10 11  1  0  0  0  0
 10  9  2  0  0  0  0
 12 16  1  6  0  0  0
 12 14  1  0  0  0  0
 12  1  1  0  0  0  0
 14 13  1  0  0  0  0
 15 14  2  0  0  0  0
 17 16  1  0  0  0  0
 18 17  2  0  0  0  0
 19 18  1  0  0  0  0
 20 19  2  0  0  0  0
 20 21  1  0  0  0  0
 21 22  2  0  0  0  0
 22 17  1  0  0  0  0
 24 23  1  0  0  0  0
 24 28  1  0  0  0  0
 25 26  1  0  0  0  0
 25 24  2  0  0  0  0
 26 27  2  0  0  0  0
 27 29  1  0  0  0  0
 27 28  1  0  0  0  0
 29 37  1  0  0  0  0
 30 29  2  0  0  0  0
 30 31  1  0  0  0  0
 31 36  1  0  0  0  0
 32 31  2  0  0  0  0
 32 33  1  0  0  0  0
 33 34  2  0  0  0  0
 34 35  1  0  0  0  0
 36 35  2  0  0  0  0
 37 36  1  0  0  0  0
M  END
>  <minimizedAffinity>
-7.47124243

$$$$
