
 OpenBabel09132204463D

 37 41  0  0  1  0  0  0  0  0999 V2000
    1.3500   -8.1300    7.1130 N   0  0  0  0  0  0  0  0  0  0  0  0
    0.5200   -9.2390    7.2780 C   0  0  0  0  0  0  0  0  0  0  0  0
    0.4760   -9.9450    8.2820 O   0  0  0  0  0  0  0  0  0  0  0  0
   -0.4810   -9.5420    6.2390 C   0  0  0  0  0  0  0  0  0  0  0  0
   -0.1470  -10.4960    5.2670 C   0  0  0  0  0  3  0  0  0  0  0  0
   -1.0550  -10.8040    4.2530 C   0  0  0  0  0  3  0  0  0  0  0  0
   -2.2820  -10.1440    4.2040 C   0  0  0  0  0  0  0  0  0  0  0  0
   -3.4030  -10.5270    2.9550 Cl  0  0  0  0  0  0  0  0  0  0  0  0
   -2.6040   -9.1680    5.1470 C   0  0  0  0  0  3  0  0  0  0  0  0
   -1.6960   -8.8550    6.1630 C   0  0  0  0  0  0  0  0  0  0  0  0
   -2.1450   -7.6190    7.2800 Cl  0  0  0  0  0  0  0  0  0  0  0  0
    2.3360   -7.8240    8.2100 C   0  0  2  0  0  3  0  0  0  0  0  0
    1.2580   -6.0440    9.4050 O   0  0  0  0  0  1  0  0  0  0  0  0
    2.3080   -6.3550    8.7630 C   0  0  0  0  0  0  0  0  0  0  0  0
    3.3680   -5.6760    8.6310 O   0  0  0  0  0  0  0  0  0  0  0  0
    3.7450   -8.3240    7.8260 C   0  0  0  0  0  2  0  0  0  0  0  0
    3.9330   -9.8070    8.0920 C   0  0  0  0  0  0  0  0  0  0  0  0
    4.1770  -10.6840    7.0280 C   0  0  0  0  0  3  0  0  0  0  0  0
    4.3740  -12.0460    7.2640 C   0  0  0  0  0  3  0  0  0  0  0  0
    4.3300  -12.5410    8.5660 C   0  0  0  0  0  3  0  0  0  0  0  0
    4.0930  -11.6750    9.6320 C   0  0  0  0  0  3  0  0  0  0  0  0
    3.8980  -10.3130    9.3980 C   0  0  0  0  0  3  0  0  0  0  0  0
    1.2670   -7.1730    6.0060 C   0  0  0  0  0  2  0  0  0  0  0  0
    2.2620   -7.4460    4.9180 C   0  0  0  0  0  0  0  0  0  0  0  0
    2.6090   -8.6470    4.3370 C   0  0  0  0  0  3  0  0  0  0  0  0
    3.5790   -8.4960    3.3040 C   0  0  0  0  0  3  0  0  0  0  0  0
    3.9710   -7.1840    3.1340 C   0  0  0  0  0  0  0  0  0  0  0  0
    3.1860   -6.1580    4.2590 S   0  0  0  0  0  0  0  0  0  0  0  0
    4.9050   -6.6620    2.1710 C   0  0  0  0  0  0  0  0  0  0  0  0
    4.8260   -6.6920    0.7850 C   0  0  0  0  0  3  0  0  0  0  0  0
    5.9770   -6.0410    0.2720 C   0  0  0  0  0  0  0  0  0  0  0  0
    6.4810   -5.7430   -1.0060 C   0  0  0  0  0  3  0  0  0  0  0  0
    7.7000   -5.0550   -1.1040 C   0  0  0  0  0  3  0  0  0  0  0  0
    8.4040   -4.6720    0.0410 C   0  0  0  0  0  3  0  0  0  0  0  0
    7.9170   -4.9610    1.3200 C   0  0  0  0  0  3  0  0  0  0  0  0
    6.7050   -5.6450    1.3830 C   0  0  0  0  0  0  0  0  0  0  0  0
    6.0670   -6.0170    2.5230 O   0  0  0  0  0  0  0  0  0  0  0  0
  1  2  1  0  0  0  0
  1 12  1  0  0  0  0
  2  3  2  0  0  0  0
  4  2  1  0  0  0  0
  5  4  2  0  0  0  0
  6  5  1  0  0  0  0
  7  6  2  0  0  0  0
  7  9  1  0  0  0  0
  8  7  1  0  0  0  0
  9 10  2  0  0  0  0
 10  4  1  0  0  0  0
 10 11  1  0  0  0  0
 12 16  1  6  0  0  0
 12 14  1  0  0  0  0
 14 13  1  0  0  0  0
 15 14  2  0  0  0  0
 16 17  1  0  0  0  0
 17 22  1  0  0  0  0
 18 19  1  0  0  0  0
 18 17  2  0  0  0  0
 19 20  2  0  0  0  0
 20 21  1  0  0  0  0
 22 21  2  0  0  0  0
 23  1  1  0  0  0  0
 24 23  1  0  0  0  0
 25 24  2  0  0  0  0
 26 25  1  0  0  0  0
 27 26  2  0  0  0  0
 27 28  1  0  0  0  0
 28 24  1  0  0  0  0
 29 37  1  0  0  0  0
 29 27  1  0  0  0  0
 30 29  2  0  0  0  0
 31 30  1  0  0  0  0
 31 36  1  0  0  0  0
 32 31  2  0  0  0  0
 33 32  1  0  0  0  0
 33 34  2  0  0  0  0
 34 35  1  0  0  0  0
 35 36  2  0  0  0  0
 36 37  1  0  0  0  0
M  END
>  <minimizedAffinity>
-7.39672613

$$$$
