
 OpenBabel09132204463D

 37 41  0  0  1  0  0  0  0  0999 V2000
    1.8790  -11.1920    5.6200 N   0  0  0  0  0  0  0  0  0  0  0  0
    2.0360  -12.4450    6.2150 C   0  0  0  0  0  0  0  0  0  0  0  0
    1.4630  -13.4710    5.8580 O   0  0  0  0  0  0  0  0  0  0  0  0
    3.0500  -12.6120    7.2710 C   0  0  0  0  0  0  0  0  0  0  0  0
    2.7770  -12.0610    8.5330 C   0  0  0  0  0  3  0  0  0  0  0  0
    3.7140  -12.1780    9.5600 C   0  0  0  0  0  3  0  0  0  0  0  0
    4.9250  -12.8260    9.3170 C   0  0  0  0  0  0  0  0  0  0  0  0
    6.0780  -12.9740   10.5870 Cl  0  0  0  0  0  0  0  0  0  0  0  0
    5.2150  -13.3430    8.0550 C   0  0  0  0  0  3  0  0  0  0  0  0
    4.2800  -13.2260    7.0220 C   0  0  0  0  0  0  0  0  0  0  0  0
    4.7150  -13.8630    5.4790 Cl  0  0  0  0  0  0  0  0  0  0  0  0
    0.8620  -11.0630    4.5170 C   0  0  2  0  0  3  0  0  0  0  0  0
   -0.8170   -9.6140    5.4340 O   0  0  0  0  0  1  0  0  0  0  0  0
   -0.6120  -10.7810    4.9780 C   0  0  0  0  0  0  0  0  0  0  0  0
   -1.4670  -11.6820    4.7360 O   0  0  0  0  0  0  0  0  0  0  0  0
    0.9950  -12.2310    3.5180 C   0  0  0  0  0  2  0  0  0  0  0  0
    2.0120  -11.9550    2.4260 C   0  0  0  0  0  0  0  0  0  0  0  0
    2.9540  -12.9320    2.0820 C   0  0  0  0  0  3  0  0  0  0  0  0
    3.8790  -12.6970    1.0640 C   0  0  0  0  0  3  0  0  0  0  0  0
    3.8690  -11.4830    0.3790 C   0  0  0  0  0  3  0  0  0  0  0  0
    2.9320  -10.5050    0.7100 C   0  0  0  0  0  3  0  0  0  0  0  0
    2.0050  -10.7400    1.7270 C   0  0  0  0  0  3  0  0  0  0  0  0
    2.7020  -10.0150    5.9110 C   0  0  0  0  0  2  0  0  0  0  0  0
    3.7560   -9.7640    4.8740 C   0  0  0  0  0  0  0  0  0  0  0  0
    4.7690  -10.5950    4.4440 C   0  0  0  0  0  3  0  0  0  0  0  0
    5.5570  -10.0100    3.4120 C   0  0  0  0  0  3  0  0  0  0  0  0
    5.1460   -8.7320    3.0920 C   0  0  0  0  0  0  0  0  0  0  0  0
    3.8320   -8.2450    4.0780 S   0  0  0  0  0  0  0  0  0  0  0  0
    5.6890   -7.8590    2.0850 C   0  0  0  0  0  0  0  0  0  0  0  0
    5.1630   -7.5410    0.8400 C   0  0  0  0  0  3  0  0  0  0  0  0
    6.0520   -6.6310    0.2130 C   0  0  0  0  0  0  0  0  0  0  0  0
    6.0970   -5.9490   -1.0150 C   0  0  0  0  0  3  0  0  0  0  0  0
    7.1840   -5.1010   -1.2730 C   0  0  0  0  0  3  0  0  0  0  0  0
    8.2050   -4.9330   -0.3330 C   0  0  0  0  0  3  0  0  0  0  0  0
    8.1760   -5.6040    0.8930 C   0  0  0  0  0  3  0  0  0  0  0  0
    7.0840   -6.4390    1.1180 C   0  0  0  0  0  0  0  0  0  0  0  0
    6.8710   -7.1750    2.2410 O   0  0  0  0  0  0  0  0  0  0  0  0
  1 23  1  0  0  0  0
  1  2  1  0  0  0  0
  2  4  1  0  0  0  0
  3  2  2  0  0  0  0
  4  5  1  0  0  0  0
  5  6  2  0  0  0  0
  7  6  1  0  0  0  0
  7  8  1  0  0  0  0
  9  7  2  0  0  0  0
 10  4  2  0  0  0  0
 10  9  1  0  0  0  0
 11 10  1  0  0  0  0
 12 16  1  1  0  0  0
 12 14  1  0  0  0  0
 12  1  1  0  0  0  0
 14 13  1  0  0  0  0
 15 14  2  0  0  0  0
 17 16  1  0  0  0  0
 18 17  1  0  0  0  0
 19 18  2  0  0  0  0
 20 21  2  0  0  0  0
 20 19  1  0  0  0  0
 21 22  1  0  0  0  0
 22 17  2  0  0  0  0
 24 23  1  0  0  0  0
 25 24  2  0  0  0  0
 26 25  1  0  0  0  0
 27 26  2  0  0  0  0
 27 28  1  0  0  0  0
 28 24  1  0  0  0  0
 29 37  1  0  0  0  0
 29 27  1  0  0  0  0
 30 29  2  0  0  0  0
 31 30  1  0  0  0  0
 31 36  1  0  0  0  0
 32 31  2  0  0  0  0
 33 32  1  0  0  0  0
 33 34  2  0  0  0  0
 34 35  1  0  0  0  0
 35 36  2  0  0  0  0
 36 37  1  0  0  0  0
M  END
>  <minimizedAffinity>
-7.88770485

$$$$
