
 OpenBabel09122218343D

 21 22  0  0  0  0  0  0  0  0999 V2000
   10.3380   -3.4470   -0.3890 C   0  0  0  0  0  0  0  0  0  0  0  0
    9.9470   -2.8160    0.7940 C   0  0  0  0  0  3  0  0  0  0  0  0
    8.8190   -3.4900    1.3140 C   0  0  0  0  0  3  0  0  0  0  0  0
    8.5440   -4.5130    0.4340 C   0  0  0  0  0  0  0  0  0  0  0  0
    9.4530   -4.4990   -0.5770 O   0  0  0  0  0  0  0  0  0  0  0  0
    7.5290   -5.5610    0.3640 C   0  0  0  0  0  0  0  0  0  0  0  0
    6.6400   -5.6180   -0.7220 C   0  0  0  0  0  3  0  0  0  0  0  0
    5.6700   -6.6210   -0.8030 C   0  0  0  0  0  3  0  0  0  0  0  0
    5.5840   -7.5740    0.2050 C   0  0  0  0  0  0  0  0  0  0  0  0
    4.6450   -8.5290    0.1060 F   0  0  0  0  0  0  0  0  0  0  0  0
    6.4550   -7.5370    1.2920 C   0  0  0  0  0  0  0  0  0  0  0  0
    6.3410   -8.7260    2.5340 Cl  0  0  0  0  0  0  0  0  0  0  0  0
    7.4230   -6.5360    1.3720 C   0  0  0  0  0  3  0  0  0  0  0  0
   11.7380   -1.8040   -1.3500 C   0  0  0  0  0  2  0  0  0  0  0  0
   11.4390   -3.1210   -1.2740 C   0  0  0  0  0  0  0  0  0  0  0  0
   11.8900   -4.1570   -1.8330 O   0  0  0  0  0  0  0  0  0  0  0  0
   12.7680   -1.0800   -2.1770 C   0  0  0  0  0  0  0  0  0  0  0  0
   13.8470   -1.5310   -2.5530 O   0  0  0  0  0  0  0  0  0  0  0  0
   13.4190    1.2270   -2.6800 O   0  0  0  0  0  1  0  0  0  0  0  0
   12.4540    0.3930   -2.5980 C   0  0  0  0  0  0  0  0  0  0  0  0
   11.2270    0.6790   -2.8330 O   0  0  0  0  0  0  0  0  0  0  0  0
  1  2  2  0  0  0  0
  2  3  1  0  0  0  0
  4  3  2  0  0  0  0
  5  1  1  0  0  0  0
  5  4  1  0  0  0  0
  6  4  1  0  0  0  0
  6 13  1  0  0  0  0
  7  6  2  0  0  0  0
  8  7  1  0  0  0  0
  8  9  2  0  0  0  0
  9 11  1  0  0  0  0
 10  9  1  0  0  0  0
 11 13  2  0  0  0  0
 11 12  1  0  0  0  0
 14 15  1  0  0  0  0
 15  1  1  0  0  0  0
 16 15  2  0  0  0  0
 17 14  1  0  0  0  0
 18 17  2  0  0  0  0
 19 20  1  0  0  0  0
 20 17  1  0  0  0  0
 21 20  2  0  0  0  0
M  END
>  <minimizedAffinity>
-8.17666626

$$$$

 OpenBabel09122218343D

 21 22  0  0  0  0  0  0  0  0999 V2000
    8.9720   -4.0190    0.0080 C   0  0  0  0  0  0  0  0  0  0  0  0
    9.0280   -3.1610    1.1070 C   0  0  0  0  0  3  0  0  0  0  0  0
   10.1890   -2.3620    0.9980 C   0  0  0  0  0  3  0  0  0  0  0  0
   10.8170   -2.7550   -0.1620 C   0  0  0  0  0  0  0  0  0  0  0  0
   10.0910   -3.7350   -0.7630 O   0  0  0  0  0  0  0  0  0  0  0  0
   12.0420   -2.3580   -0.8510 C   0  0  0  0  0  0  0  0  0  0  0  0
   12.0480   -1.2420   -1.7050 C   0  0  0  0  0  3  0  0  0  0  0  0
   13.2150   -0.8480   -2.3640 C   0  0  0  0  0  3  0  0  0  0  0  0
   14.3870   -1.5710   -2.1720 C   0  0  0  0  0  0  0  0  0  0  0  0
   15.4980   -1.1740   -2.8140 F   0  0  0  0  0  0  0  0  0  0  0  0
   14.4060   -2.6800   -1.3300 C   0  0  0  0  0  0  0  0  0  0  0  0
   15.8650   -3.5670   -1.0960 Cl  0  0  0  0  0  0  0  0  0  0  0  0
   13.2400   -3.0730   -0.6720 C   0  0  0  0  0  3  0  0  0  0  0  0
    7.5570   -5.7710    0.7230 C   0  0  0  0  0  2  0  0  0  0  0  0
    7.9700   -5.0150   -0.3200 C   0  0  0  0  0  0  0  0  0  0  0  0
    7.7010   -4.9960   -1.5520 O   0  0  0  0  0  0  0  0  0  0  0  0
    6.5790   -6.9160    0.7740 C   0  0  0  0  0  0  0  0  0  0  0  0
    6.5960   -7.8530    1.5680 O   0  0  0  0  0  0  0  0  0  0  0  0
    5.4190   -7.8640   -1.1640 O   0  0  0  0  0  0  0  0  0  0  0  0
    5.4310   -6.9340   -0.2870 C   0  0  0  0  0  0  0  0  0  0  0  0
    4.5590   -5.9970   -0.2130 O   0  0  0  0  0  1  0  0  0  0  0  0
  1  2  2  0  0  0  0
  3  2  1  0  0  0  0
  4  3  2  0  0  0  0
  5  4  1  0  0  0  0
  5  1  1  0  0  0  0
  6 13  1  0  0  0  0
  6  4  1  0  0  0  0
  7  6  2  0  0  0  0
  8  9  2  0  0  0  0
  8  7  1  0  0  0  0
  9 11  1  0  0  0  0
 10  9  1  0  0  0  0
 11 12  1  0  0  0  0
 11 13  2  0  0  0  0
 14 17  1  0  0  0  0
 15  1  1  0  0  0  0
 15 14  1  0  0  0  0
 16 15  2  0  0  0  0
 17 18  2  0  0  0  0
 19 20  2  0  0  0  0
 20 21  1  0  0  0  0
 20 17  1  0  0  0  0
M  END
>  <minimizedAffinity>
-8.11125469

$$$$

 OpenBabel09122218343D

 21 22  0  0  0  0  0  0  0  0999 V2000
   10.2780   -3.0250   -0.5160 C   0  0  0  0  0  0  0  0  0  0  0  0
   10.0260   -2.5930    0.7870 C   0  0  0  0  0  3  0  0  0  0  0  0
    8.9960   -3.3900    1.3360 C   0  0  0  0  0  3  0  0  0  0  0  0
    8.6390   -4.2860    0.3540 C   0  0  0  0  0  0  0  0  0  0  0  0
    9.4080   -4.0810   -0.7490 O   0  0  0  0  0  0  0  0  0  0  0  0
    7.6560   -5.3610    0.2530 C   0  0  0  0  0  0  0  0  0  0  0  0
    6.8160   -5.4530   -0.8690 C   0  0  0  0  0  3  0  0  0  0  0  0
    5.8760   -6.4820   -0.9790 C   0  0  0  0  0  3  0  0  0  0  0  0
    5.7710   -7.4250    0.0360 C   0  0  0  0  0  0  0  0  0  0  0  0
    4.8620   -8.4060   -0.0910 F   0  0  0  0  0  0  0  0  0  0  0  0
    6.5940   -7.3540    1.1580 C   0  0  0  0  0  0  0  0  0  0  0  0
    6.4580   -8.5320    2.4090 Cl  0  0  0  0  0  0  0  0  0  0  0  0
    7.5320   -6.3280    1.2680 C   0  0  0  0  0  3  0  0  0  0  0  0
   12.4820   -3.0600   -1.3700 C   0  0  0  0  0  2  0  0  0  0  0  0
   11.2450   -2.5210   -1.4730 C   0  0  0  0  0  0  0  0  0  0  0  0
   10.7310   -1.6340   -2.2080 O   0  0  0  0  0  0  0  0  0  0  0  0
   13.7420   -2.7680   -2.1410 C   0  0  0  0  0  0  0  0  0  0  0  0
   13.8330   -2.6120   -3.3560 O   0  0  0  0  0  0  0  0  0  0  0  0
   15.4500   -3.6650   -0.6300 O   0  0  0  0  0  1  0  0  0  0  0  0
   15.0770   -2.6640   -1.3330 C   0  0  0  0  0  0  0  0  0  0  0  0
   15.7230   -1.5610   -1.4230 O   0  0  0  0  0  0  0  0  0  0  0  0
  1  2  2  0  0  0  0
  2  3  1  0  0  0  0
  4  3  2  0  0  0  0
  5  1  1  0  0  0  0
  5  4  1  0  0  0  0
  6  4  1  0  0  0  0
  6 13  1  0  0  0  0
  7  6  2  0  0  0  0
  8  7  1  0  0  0  0
  8  9  2  0  0  0  0
  9 11  1  0  0  0  0
 10  9  1  0  0  0  0
 11 13  2  0  0  0  0
 11 12  1  0  0  0  0
 15 14  1  0  0  0  0
 15  1  1  0  0  0  0
 16 15  2  0  0  0  0
 17 14  1  0  0  0  0
 17 20  1  0  0  0  0
 18 17  2  0  0  0  0
 20 19  1  0  0  0  0
 21 20  2  0  0  0  0
M  END
>  <minimizedAffinity>
-8.01986313

$$$$

 OpenBabel09122218343D

 21 22  0  0  0  0  0  0  0  0999 V2000
    8.2560   -4.9020    0.8310 C   0  0  0  0  0  0  0  0  0  0  0  0
    8.2240   -3.8400    1.7370 C   0  0  0  0  0  3  0  0  0  0  0  0
    9.1660   -2.8680    1.3280 C   0  0  0  0  0  3  0  0  0  0  0  0
    9.7540   -3.3610    0.1860 C   0  0  0  0  0  0  0  0  0  0  0  0
    9.2090   -4.5680   -0.1210 O   0  0  0  0  0  0  0  0  0  0  0  0
   10.7920   -2.8810   -0.7230 C   0  0  0  0  0  0  0  0  0  0  0  0
   11.8680   -3.7130   -1.0760 C   0  0  0  0  0  3  0  0  0  0  0  0
   12.8630   -3.2670   -1.9500 C   0  0  0  0  0  3  0  0  0  0  0  0
   12.7870   -1.9830   -2.4760 C   0  0  0  0  0  0  0  0  0  0  0  0
   13.7530   -1.5760   -3.3150 F   0  0  0  0  0  0  0  0  0  0  0  0
   11.7300   -1.1410   -2.1410 C   0  0  0  0  0  0  0  0  0  0  0  0
   11.6440    0.4480   -2.8020 Cl  0  0  0  0  0  0  0  0  0  0  0  0
   10.7360   -1.5860   -1.2680 C   0  0  0  0  0  3  0  0  0  0  0  0
    6.4210   -6.1220   -0.0210 C   0  0  0  0  0  2  0  0  0  0  0  0
    7.4730   -6.1220    0.8300 C   0  0  0  0  0  0  0  0  0  0  0  0
    7.9250   -6.9490    1.6680 O   0  0  0  0  0  0  0  0  0  0  0  0
    5.3670   -7.1680   -0.2740 C   0  0  0  0  0  0  0  0  0  0  0  0
    5.2740   -7.8810   -1.2690 O   0  0  0  0  0  0  0  0  0  0  0  0
    4.3050   -6.6330    1.8680 O   0  0  0  0  0  1  0  0  0  0  0  0
    4.2720   -7.3700    0.8230 C   0  0  0  0  0  0  0  0  0  0  0  0
    3.3950   -8.2800    0.6060 O   0  0  0  0  0  0  0  0  0  0  0  0
  1  2  2  0  0  0  0
  3  2  1  0  0  0  0
  4  3  2  0  0  0  0
  5  4  1  0  0  0  0
  5  1  1  0  0  0  0
  6  4  1  0  0  0  0
  7  6  1  0  0  0  0
  8  7  2  0  0  0  0
  9 11  2  0  0  0  0
  9  8  1  0  0  0  0
 10  9  1  0  0  0  0
 11 13  1  0  0  0  0
 12 11  1  0  0  0  0
 13  6  2  0  0  0  0
 14 15  1  0  0  0  0
 15  1  1  0  0  0  0
 15 16  2  0  0  0  0
 17 14  1  0  0  0  0
 17 20  1  0  0  0  0
 18 17  2  0  0  0  0
 20 19  1  0  0  0  0
 21 20  2  0  0  0  0
M  END
>  <minimizedAffinity>
-7.94648457

$$$$

 OpenBabel09122218343D

 21 22  0  0  0  0  0  0  0  0999 V2000
    8.7450   -4.2320   -0.0740 C   0  0  0  0  0  0  0  0  0  0  0  0
    8.9030   -3.5950    1.1580 C   0  0  0  0  0  3  0  0  0  0  0  0
   10.0960   -2.8370    1.1250 C   0  0  0  0  0  3  0  0  0  0  0  0
   10.6410   -3.0340   -0.1240 C   0  0  0  0  0  0  0  0  0  0  0  0
    9.8340   -3.8560   -0.8470 O   0  0  0  0  0  0  0  0  0  0  0  0
   11.8460   -2.5650   -0.8030 C   0  0  0  0  0  0  0  0  0  0  0  0
   11.7900   -1.4580   -1.6660 C   0  0  0  0  0  3  0  0  0  0  0  0
   12.9380   -0.9970   -2.3160 C   0  0  0  0  0  3  0  0  0  0  0  0
   14.1510   -1.6420   -2.1050 C   0  0  0  0  0  0  0  0  0  0  0  0
   15.2410   -1.1810   -2.7380 F   0  0  0  0  0  0  0  0  0  0  0  0
   14.2300   -2.7420   -1.2540 C   0  0  0  0  0  0  0  0  0  0  0  0
   15.7400   -3.5330   -0.9970 Cl  0  0  0  0  0  0  0  0  0  0  0  0
   13.0840   -3.2020   -0.6050 C   0  0  0  0  0  3  0  0  0  0  0  0
    7.1870   -5.9340    0.4390 C   0  0  0  0  0  2  0  0  0  0  0  0
    7.6780   -5.1100   -0.5150 C   0  0  0  0  0  0  0  0  0  0  0  0
    7.4370   -4.9450   -1.7410 O   0  0  0  0  0  0  0  0  0  0  0  0
    6.1250   -6.9990    0.3600 C   0  0  0  0  0  0  0  0  0  0  0  0
    5.5940   -7.4220   -0.6630 O   0  0  0  0  0  0  0  0  0  0  0  0
    6.1920   -7.2690    2.7940 O   0  0  0  0  0  1  0  0  0  0  0  0
    5.6310   -7.6290    1.7030 C   0  0  0  0  0  0  0  0  0  0  0  0
    4.6790   -8.4850    1.6260 O   0  0  0  0  0  0  0  0  0  0  0  0
  1  2  2  0  0  0  0
  3  2  1  0  0  0  0
  4  3  2  0  0  0  0
  5  4  1  0  0  0  0
  5  1  1  0  0  0  0
  6 13  1  0  0  0  0
  6  4  1  0  0  0  0
  7  6  2  0  0  0  0
  8  9  2  0  0  0  0
  8  7  1  0  0  0  0
  9 11  1  0  0  0  0
 10  9  1  0  0  0  0
 11 12  1  0  0  0  0
 11 13  2  0  0  0  0
 15  1  1  0  0  0  0
 15 14  1  0  0  0  0
 16 15  2  0  0  0  0
 17 14  1  0  0  0  0
 17 20  1  0  0  0  0
 18 17  2  0  0  0  0
 20 19  1  0  0  0  0
 21 20  2  0  0  0  0
M  END
>  <minimizedAffinity>
-7.88550091

$$$$

 OpenBabel09122218343D

 21 22  0  0  0  0  0  0  0  0999 V2000
    8.5200   -4.3680    0.0930 C   0  0  0  0  0  0  0  0  0  0  0  0
    8.7190   -3.6040    1.2450 C   0  0  0  0  0  3  0  0  0  0  0  0
    9.8650   -2.7980    1.0600 C   0  0  0  0  0  3  0  0  0  0  0  0
   10.3410   -3.0910   -0.1980 C   0  0  0  0  0  0  0  0  0  0  0  0
    9.5370   -4.0180   -0.7830 O   0  0  0  0  0  0  0  0  0  0  0  0
   11.4760   -2.6350   -0.9970 C   0  0  0  0  0  0  0  0  0  0  0  0
   12.4590   -3.5450   -1.4190 C   0  0  0  0  0  3  0  0  0  0  0  0
   13.5450   -3.1220   -2.1900 C   0  0  0  0  0  3  0  0  0  0  0  0
   13.6520   -1.7820   -2.5440 C   0  0  0  0  0  0  0  0  0  0  0  0
   14.7030   -1.3980   -3.2870 F   0  0  0  0  0  0  0  0  0  0  0  0
   12.6890   -0.8620   -2.1380 C   0  0  0  0  0  0  0  0  0  0  0  0
   12.8300    0.7970   -2.5860 Cl  0  0  0  0  0  0  0  0  0  0  0  0
   11.6050   -1.2850   -1.3680 C   0  0  0  0  0  3  0  0  0  0  0  0
    7.1220   -6.1120    0.8570 C   0  0  0  0  0  2  0  0  0  0  0  0
    7.4760   -5.3340   -0.1910 C   0  0  0  0  0  0  0  0  0  0  0  0
    7.1220   -5.2730   -1.3990 O   0  0  0  0  0  0  0  0  0  0  0  0
    6.1250   -7.2390    0.9460 C   0  0  0  0  0  0  0  0  0  0  0  0
    6.0480   -8.0720    1.8450 O   0  0  0  0  0  0  0  0  0  0  0  0
    3.9600   -6.7920   -0.1100 O   0  0  0  0  0  1  0  0  0  0  0  0
    5.0900   -7.3820   -0.2170 C   0  0  0  0  0  0  0  0  0  0  0  0
    5.4420   -8.0970   -1.2210 O   0  0  0  0  0  0  0  0  0  0  0  0
  1  2  2  0  0  0  0
  3  2  1  0  0  0  0
  4  3  2  0  0  0  0
  5  4  1  0  0  0  0
  5  1  1  0  0  0  0
  6  4  1  0  0  0  0
  7  6  2  0  0  0  0
  8  7  1  0  0  0  0
  9  8  2  0  0  0  0
  9 11  1  0  0  0  0
 10  9  1  0  0  0  0
 11 13  2  0  0  0  0
 12 11  1  0  0  0  0
 13  6  1  0  0  0  0
 14 17  1  0  0  0  0
 15  1  1  0  0  0  0
 15 14  1  0  0  0  0
 16 15  2  0  0  0  0
 17 18  2  0  0  0  0
 20 19  1  0  0  0  0
 20 17  1  0  0  0  0
 21 20  2  0  0  0  0
M  END
>  <minimizedAffinity>
-7.72312975

$$$$

 OpenBabel09122218343D

 21 22  0  0  0  0  0  0  0  0999 V2000
    8.3670   -4.8020    0.8530 C   0  0  0  0  0  0  0  0  0  0  0  0
    8.2700   -3.7530    1.7690 C   0  0  0  0  0  3  0  0  0  0  0  0
    9.2140   -2.7600    1.4210 C   0  0  0  0  0  3  0  0  0  0  0  0
    9.8700   -3.2290    0.3040 C   0  0  0  0  0  0  0  0  0  0  0  0
    9.3610   -4.4400   -0.0460 O   0  0  0  0  0  0  0  0  0  0  0  0
   10.9450   -2.7200   -0.5440 C   0  0  0  0  0  0  0  0  0  0  0  0
   10.7400   -1.5860   -1.3470 C   0  0  0  0  0  3  0  0  0  0  0  0
   11.7640   -1.0870   -2.1570 C   0  0  0  0  0  3  0  0  0  0  0  0
   13.0000   -1.7210   -2.1670 C   0  0  0  0  0  0  0  0  0  0  0  0
   13.9700   -1.2230   -2.9510 F   0  0  0  0  0  0  0  0  0  0  0  0
   13.2260   -2.8470   -1.3790 C   0  0  0  0  0  0  0  0  0  0  0  0
   14.7650   -3.6240   -1.3960 Cl  0  0  0  0  0  0  0  0  0  0  0  0
   12.2040   -3.3450   -0.5700 C   0  0  0  0  0  3  0  0  0  0  0  0
    6.5180   -5.9950   -0.0090 C   0  0  0  0  0  2  0  0  0  0  0  0
    7.6050   -6.0340    0.7950 C   0  0  0  0  0  0  0  0  0  0  0  0
    8.1060   -6.9090    1.5520 O   0  0  0  0  0  0  0  0  0  0  0  0
    5.4720   -7.0420   -0.2920 C   0  0  0  0  0  0  0  0  0  0  0  0
    5.3720   -7.7120   -1.3160 O   0  0  0  0  0  0  0  0  0  0  0  0
    4.3780   -6.5530    1.8450 O   0  0  0  0  0  1  0  0  0  0  0  0
    4.3950   -7.3050    0.8110 C   0  0  0  0  0  0  0  0  0  0  0  0
    3.5840   -8.2760    0.6080 O   0  0  0  0  0  0  0  0  0  0  0  0
  1  2  2  0  0  0  0
  3  2  1  0  0  0  0
  4  3  2  0  0  0  0
  5  4  1  0  0  0  0
  5  1  1  0  0  0  0
  6  4  1  0  0  0  0
  7  6  2  0  0  0  0
  8  7  1  0  0  0  0
  9  8  2  0  0  0  0
  9 11  1  0  0  0  0
 10  9  1  0  0  0  0
 11 13  2  0  0  0  0
 12 11  1  0  0  0  0
 13  6  1  0  0  0  0
 14 15  1  0  0  0  0
 15  1  1  0  0  0  0
 15 16  2  0  0  0  0
 17 14  1  0  0  0  0
 17 20  1  0  0  0  0
 18 17  2  0  0  0  0
 20 19  1  0  0  0  0
 21 20  2  0  0  0  0
M  END
>  <minimizedAffinity>
-7.59357071

$$$$

 OpenBabel09122218343D

 21 22  0  0  0  0  0  0  0  0999 V2000
    8.8540   -3.7820    0.1770 C   0  0  0  0  0  0  0  0  0  0  0  0
    9.1850   -3.3220    1.4520 C   0  0  0  0  0  3  0  0  0  0  0  0
    9.9240   -2.1250    1.3230 C   0  0  0  0  0  3  0  0  0  0  0  0
   10.0330   -1.8840   -0.0280 C   0  0  0  0  0  0  0  0  0  0  0  0
    9.3870   -2.8630   -0.7160 O   0  0  0  0  0  0  0  0  0  0  0  0
   10.6650   -0.8470   -0.8380 C   0  0  0  0  0  0  0  0  0  0  0  0
   11.2500   -1.1680   -2.0740 C   0  0  0  0  0  3  0  0  0  0  0  0
   11.8510   -0.1820   -2.8610 C   0  0  0  0  0  3  0  0  0  0  0  0
   11.8710    1.1340   -2.4140 C   0  0  0  0  0  0  0  0  0  0  0  0
   12.4530    2.0650   -3.1870 F   0  0  0  0  0  0  0  0  0  0  0  0
   11.2970    1.4760   -1.1920 C   0  0  0  0  0  0  0  0  0  0  0  0
   11.3230    3.1120   -0.6490 Cl  0  0  0  0  0  0  0  0  0  0  0  0
   10.6960    0.4920   -0.4060 C   0  0  0  0  0  3  0  0  0  0  0  0
    7.5150   -5.6160    0.8300 C   0  0  0  0  0  2  0  0  0  0  0  0
    8.1020   -4.9640   -0.1990 C   0  0  0  0  0  0  0  0  0  0  0  0
    8.1750   -5.1680   -1.4420 O   0  0  0  0  0  0  0  0  0  0  0  0
    6.7010   -6.8840    0.8480 C   0  0  0  0  0  0  0  0  0  0  0  0
    6.8930   -7.8620    1.5660 O   0  0  0  0  0  0  0  0  0  0  0  0
    5.5740   -7.8100   -1.1210 O   0  0  0  0  0  0  0  0  0  0  0  0
    5.4990   -6.9850   -0.1460 C   0  0  0  0  0  0  0  0  0  0  0  0
    4.4950   -6.2190    0.0790 O   0  0  0  0  0  1  0  0  0  0  0  0
  1  2  2  0  0  0  0
  3  2  1  0  0  0  0
  4  3  2  0  0  0  0
  5  4  1  0  0  0  0
  5  1  1  0  0  0  0
  6 13  1  0  0  0  0
  6  4  1  0  0  0  0
  7  6  2  0  0  0  0
  8  9  2  0  0  0  0
  8  7  1  0  0  0  0
  9 11  1  0  0  0  0
 10  9  1  0  0  0  0
 11 12  1  0  0  0  0
 11 13  2  0  0  0  0
 14 17  1  0  0  0  0
 15  1  1  0  0  0  0
 15 14  1  0  0  0  0
 16 15  2  0  0  0  0
 17 18  2  0  0  0  0
 19 20  2  0  0  0  0
 20 21  1  0  0  0  0
 20 17  1  0  0  0  0
M  END
>  <minimizedAffinity>
-7.5323844

$$$$

 OpenBabel09122218343D

 21 22  0  0  0  0  0  0  0  0999 V2000
   13.1550   -1.8170   -1.6190 C   0  0  0  0  0  0  0  0  0  0  0  0
   12.3080   -1.0030   -2.3730 C   0  0  0  0  0  3  0  0  0  0  0  0
   10.9720   -1.2690   -1.9960 C   0  0  0  0  0  3  0  0  0  0  0  0
   11.0340   -2.2420   -1.0240 C   0  0  0  0  0  0  0  0  0  0  0  0
   12.3340   -2.5650   -0.7880 O   0  0  0  0  0  0  0  0  0  0  0  0
   10.0440   -2.9660   -0.2310 C   0  0  0  0  0  0  0  0  0  0  0  0
    9.3530   -4.0580   -0.7820 C   0  0  0  0  0  3  0  0  0  0  0  0
    8.4080   -4.7610   -0.0310 C   0  0  0  0  0  3  0  0  0  0  0  0
    8.1490   -4.3750    1.2790 C   0  0  0  0  0  0  0  0  0  0  0  0
    7.2380   -5.0670    1.9830 F   0  0  0  0  0  0  0  0  0  0  0  0
    8.8220   -3.2960    1.8470 C   0  0  0  0  0  0  0  0  0  0  0  0
    8.4950   -2.8270    3.4730 Cl  0  0  0  0  0  0  0  0  0  0  0  0
    9.7650   -2.5930    1.0960 C   0  0  0  0  0  3  0  0  0  0  0  0
   15.1330   -2.8700   -0.8700 C   0  0  0  0  0  2  0  0  0  0  0  0
   14.6030   -1.8990   -1.6480 C   0  0  0  0  0  0  0  0  0  0  0  0
   15.0900   -1.0030   -2.3890 O   0  0  0  0  0  0  0  0  0  0  0  0
   16.5710   -3.2360   -0.6060 C   0  0  0  0  0  0  0  0  0  0  0  0
   17.1430   -4.2560   -0.9820 O   0  0  0  0  0  0  0  0  0  0  0  0
   17.7800   -1.1280   -0.2960 O   0  0  0  0  0  0  0  0  0  0  0  0
   17.4280   -2.2370    0.2370 C   0  0  0  0  0  0  0  0  0  0  0  0
   17.7340   -2.5980    1.4280 O   0  0  0  0  0  1  0  0  0  0  0  0
  1  5  1  0  0  0  0
  2  3  1  0  0  0  0
  2  1  2  0  0  0  0
  3  4  2  0  0  0  0
  4  5  1  0  0  0  0
  4  6  1  0  0  0  0
  6 13  1  0  0  0  0
  7  6  2  0  0  0  0
  7  8  1  0  0  0  0
  8  9  2  0  0  0  0
  9 11  1  0  0  0  0
  9 10  1  0  0  0  0
 11 12  1  0  0  0  0
 13 11  2  0  0  0  0
 14 17  1  0  0  0  0
 15  1  1  0  0  0  0
 15 14  1  0  0  0  0
 16 15  2  0  0  0  0
 17 20  1  0  0  0  0
 18 17  2  0  0  0  0
 19 20  2  0  0  0  0
 20 21  1  0  0  0  0
M  END
>  <minimizedAffinity>
-7.19187927

$$$$

 OpenBabel09122218343D

 21 22  0  0  0  0  0  0  0  0999 V2000
    9.1360   -3.6070    0.8140 C   0  0  0  0  0  0  0  0  0  0  0  0
    9.3570   -3.8600   -0.5410 C   0  0  0  0  0  3  0  0  0  0  0  0
    8.4420   -4.8470   -0.9720 C   0  0  0  0  0  3  0  0  0  0  0  0
    7.6880   -5.1780    0.1300 C   0  0  0  0  0  0  0  0  0  0  0  0
    8.0890   -4.4350    1.1950 O   0  0  0  0  0  0  0  0  0  0  0  0
    6.5970   -6.1160    0.3830 C   0  0  0  0  0  0  0  0  0  0  0  0
    5.4910   -6.1690   -0.4820 C   0  0  0  0  0  3  0  0  0  0  0  0
    4.4450   -7.0670   -0.2540 C   0  0  0  0  0  3  0  0  0  0  0  0
    4.5000   -7.9190    0.8430 C   0  0  0  0  0  0  0  0  0  0  0  0
    3.4840   -8.7750    1.0420 F   0  0  0  0  0  0  0  0  0  0  0  0
    5.5860   -7.8850    1.7140 C   0  0  0  0  0  0  0  0  0  0  0  0
    5.6460   -8.9470    3.0690 Cl  0  0  0  0  0  0  0  0  0  0  0  0
    6.6310   -6.9880    1.4860 C   0  0  0  0  0  3  0  0  0  0  0  0
    9.0270   -1.7330    2.2490 C   0  0  0  0  0  2  0  0  0  0  0  0
    9.8200   -2.6770    1.6910 C   0  0  0  0  0  0  0  0  0  0  0  0
   11.0560   -2.9230    1.7340 O   0  0  0  0  0  0  0  0  0  0  0  0
    9.3680   -0.5860    3.1640 C   0  0  0  0  0  0  0  0  0  0  0  0
    9.5230   -0.6470    4.3810 O   0  0  0  0  0  0  0  0  0  0  0  0
    9.7990    1.8230    3.2780 O   0  0  0  0  0  1  0  0  0  0  0  0
    9.5320    0.8290    2.5190 C   0  0  0  0  0  0  0  0  0  0  0  0
    9.3820    0.9080    1.2480 O   0  0  0  0  0  0  0  0  0  0  0  0
  1  5  1  0  0  0  0
  1 15  1  0  0  0  0
  2  1  2  0  0  0  0
  3  2  1  0  0  0  0
  3  4  2  0  0  0  0
  4  6  1  0  0  0  0
  4  5  1  0  0  0  0
  6 13  1  0  0  0  0
  7  8  1  0  0  0  0
  7  6  2  0  0  0  0
  8  9  2  0  0  0  0
  9 10  1  0  0  0  0
  9 11  1  0  0  0  0
 11 12  1  0  0  0  0
 13 11  2  0  0  0  0
 14 17  1  0  0  0  0
 15 16  2  0  0  0  0
 15 14  1  0  0  0  0
 17 18  2  0  0  0  0
 20 17  1  0  0  0  0
 20 19  1  0  0  0  0
 21 20  2  0  0  0  0
M  END
>  <minimizedAffinity>
-7.1431098

$$$$
