
 OpenBabel09122222393D

 21 22  0  0  0  0  0  0  0  0999 V2000
   10.3380   -3.4470   -0.3890 C   0  0  0  0  0  0  0  0  0  0  0  0
    9.9470   -2.8160    0.7940 C   0  0  0  0  0  3  0  0  0  0  0  0
    8.8190   -3.4900    1.3140 C   0  0  0  0  0  3  0  0  0  0  0  0
    8.5440   -4.5130    0.4340 C   0  0  0  0  0  0  0  0  0  0  0  0
    9.4530   -4.4990   -0.5770 O   0  0  0  0  0  0  0  0  0  0  0  0
    7.5290   -5.5610    0.3640 C   0  0  0  0  0  0  0  0  0  0  0  0
    6.6400   -5.6180   -0.7220 C   0  0  0  0  0  3  0  0  0  0  0  0
    5.6700   -6.6210   -0.8030 C   0  0  0  0  0  3  0  0  0  0  0  0
    5.5840   -7.5740    0.2050 C   0  0  0  0  0  0  0  0  0  0  0  0
    4.6450   -8.5290    0.1060 F   0  0  0  0  0  0  0  0  0  0  0  0
    6.4550   -7.5370    1.2920 C   0  0  0  0  0  0  0  0  0  0  0  0
    6.3410   -8.7260    2.5340 Cl  0  0  0  0  0  0  0  0  0  0  0  0
    7.4230   -6.5360    1.3720 C   0  0  0  0  0  3  0  0  0  0  0  0
   11.7380   -1.8040   -1.3500 C   0  0  0  0  0  2  0  0  0  0  0  0
   11.4390   -3.1210   -1.2740 C   0  0  0  0  0  0  0  0  0  0  0  0
   11.8900   -4.1570   -1.8330 O   0  0  0  0  0  0  0  0  0  0  0  0
   12.7680   -1.0800   -2.1770 C   0  0  0  0  0  0  0  0  0  0  0  0
   13.8470   -1.5310   -2.5530 O   0  0  0  0  0  0  0  0  0  0  0  0
   13.4190    1.2270   -2.6800 O   0  0  0  0  0  1  0  0  0  0  0  0
   12.4540    0.3930   -2.5980 C   0  0  0  0  0  0  0  0  0  0  0  0
   11.2270    0.6790   -2.8330 O   0  0  0  0  0  0  0  0  0  0  0  0
  1  2  2  0  0  0  0
  2  3  1  0  0  0  0
  4  3  2  0  0  0  0
  5  1  1  0  0  0  0
  5  4  1  0  0  0  0
  6  4  1  0  0  0  0
  6 13  1  0  0  0  0
  7  6  2  0  0  0  0
  8  7  1  0  0  0  0
  8  9  2  0  0  0  0
  9 11  1  0  0  0  0
 10  9  1  0  0  0  0
 11 13  2  0  0  0  0
 11 12  1  0  0  0  0
 14 15  1  0  0  0  0
 15  1  1  0  0  0  0
 16 15  2  0  0  0  0
 17 14  1  0  0  0  0
 18 17  2  0  0  0  0
 19 20  1  0  0  0  0
 20 17  1  0  0  0  0
 21 20  2  0  0  0  0
M  END
>  <minimizedAffinity>
-8.17666626

$$$$
