
 OpenBabel09122222393D

 31 34  0  0  1  0  0  0  0  0999 V2000
    4.2590   -4.7490    5.4970 N   0  0  0  0  0  0  0  0  0  0  0  0
    2.9550   -4.3840    5.8700 C   0  0  0  0  0  0  0  0  0  0  0  0
    2.5380   -3.2500    6.1000 O   0  0  0  0  0  0  0  0  0  0  0  0
    5.3080   -3.8610    5.7910 C   0  0  0  0  0  0  0  0  0  0  0  0
    6.4500   -3.8340    5.1340 N   0  0  0  0  0  0  0  0  0  0  0  0
    7.3190   -2.9460    5.7460 C   0  0  0  0  0  3  0  0  0  0  0  0
    6.8470   -2.3460    6.8910 C   0  0  0  0  0  0  0  0  0  0  0  0
    5.2550   -2.8760    7.1990 S   0  0  0  0  0  0  0  0  0  0  0  0
    4.5350   -4.4170    2.4520 C   0  0  0  0  0  1  0  0  0  0  0  0
    3.9520   -5.6700    3.1120 C   0  0  1  0  0  3  0  0  0  0  0  0
    4.2650   -6.8990    2.2370 C   0  0  0  0  0  2  0  0  0  0  0  0
    3.7370   -8.1890    2.8570 C   0  0  0  0  0  2  0  0  0  0  0  0
    4.2820   -8.3970    4.2640 C   0  0  0  0  0  2  0  0  0  0  0  0
    3.9780   -7.2040    5.1640 C   0  0  0  0  0  2  0  0  0  0  0  0
    4.4900   -5.8810    4.5560 C   0  0  2  0  0  3  0  0  0  0  0  0
    1.9330   -5.4520    5.9520 C   0  0  0  0  0  0  0  0  0  0  0  0
    1.8650   -6.2430    7.1040 C   0  0  0  0  0  3  0  0  0  0  0  0
    0.9040   -7.2510    7.1910 C   0  0  0  0  0  3  0  0  0  0  0  0
    0.0200   -7.4600    6.1310 C   0  0  0  0  0  0  0  0  0  0  0  0
    0.1240   -6.7050    4.9580 C   0  0  0  0  0  3  0  0  0  0  0  0
    1.0860   -5.6990    4.8660 C   0  0  0  0  0  3  0  0  0  0  0  0
   -0.8930   -8.4820    6.2640 O   0  0  0  0  0  0  0  0  0  0  0  0
   -2.0700   -8.1830    6.9130 C   0  0  0  0  0  0  0  0  0  0  0  0
   -2.8990   -7.1270    6.5290 C   0  0  0  0  0  3  0  0  0  0  0  0
   -4.0590   -6.8560    7.2560 C   0  0  0  0  0  3  0  0  0  0  0  0
   -4.3800   -7.6290    8.3720 C   0  0  0  0  0  3  0  0  0  0  0  0
   -3.5390   -8.6700    8.7680 C   0  0  0  0  0  3  0  0  0  0  0  0
   -2.3780   -8.9420    8.0430 C   0  0  0  0  0  3  0  0  0  0  0  0
    7.6360   -1.4070    7.7100 C   0  0  0  0  0  0  0  0  0  0  0  0
    7.9380   -0.2880    7.1940 O   0  0  0  0  0  0  0  0  0  0  0  0
    7.9380   -1.7990    8.8800 O   0  0  0  0  0  1  0  0  0  0  0  0
  1  4  1  0  0  0  0
  1  2  1  0  0  0  0
  2 16  1  0  0  0  0
  2  3  2  0  0  0  0
  4  8  1  0  0  0  0
  5  6  1  0  0  0  0
  5  4  2  0  0  0  0
  6  7  2  0  0  0  0
  7  8  1  0  0  0  0
  7 29  1  0  0  0  0
 10  9  1  6  0  0  0
 10 15  1  0  0  0  0
 11 12  1  0  0  0  0
 11 10  1  0  0  0  0
 12 13  1  0  0  0  0
 13 14  1  0  0  0  0
 15 14  1  0  0  0  0
 15  1  1  1  0  0  0
 16 17  1  0  0  0  0
 17 18  2  0  0  0  0
 19 22  1  0  0  0  0
 19 18  1  0  0  0  0
 20 19  2  0  0  0  0
 21 20  1  0  0  0  0
 21 16  2  0  0  0  0
 22 23  1  0  0  0  0
 23 28  1  0  0  0  0
 24 23  2  0  0  0  0
 24 25  1  0  0  0  0
 25 26  2  0  0  0  0
 26 27  1  0  0  0  0
 28 27  2  0  0  0  0
 29 31  1  0  0  0  0
 30 29  2  0  0  0  0
M  END
>  <minimizedAffinity>
-5.35428762

$$$$
