
 OpenBabel09122222393D

 31 34  0  0  1  0  0  0  0  0999 V2000
    0.4580   -7.4340    7.3260 N   0  0  0  0  0  0  0  0  0  0  0  0
    0.5350   -6.9990    5.9920 C   0  0  0  0  0  0  0  0  0  0  0  0
   -0.3370   -6.4200    5.3480 O   0  0  0  0  0  0  0  0  0  0  0  0
   -0.8140   -7.6230    7.8910 C   0  0  0  0  0  0  0  0  0  0  0  0
   -1.0540   -7.5750    9.1850 N   0  0  0  0  0  0  0  0  0  0  0  0
   -2.3700   -7.9320    9.4300 C   0  0  0  0  0  3  0  0  0  0  0  0
   -3.1020   -8.2950    8.3230 C   0  0  0  0  0  0  0  0  0  0  0  0
   -2.1330   -8.1570    6.9260 S   0  0  0  0  0  0  0  0  0  0  0  0
    1.4620   -4.9060    8.7610 C   0  0  0  0  0  1  0  0  0  0  0  0
    2.3900   -6.0290    8.2880 C   0  0  1  0  0  3  0  0  0  0  0  0
    3.6010   -6.1210    9.2350 C   0  0  0  0  0  2  0  0  0  0  0  0
    4.5520   -7.2460    8.8360 C   0  0  0  0  0  2  0  0  0  0  0  0
    3.8350   -8.5880    8.7740 C   0  0  0  0  0  2  0  0  0  0  0  0
    2.6360   -8.5380    7.8320 C   0  0  0  0  0  2  0  0  0  0  0  0
    1.6620   -7.4000    8.2050 C   0  0  2  0  0  3  0  0  0  0  0  0
    1.8130   -7.1980    5.2710 C   0  0  0  0  0  0  0  0  0  0  0  0
    2.6300   -6.0910    5.0140 C   0  0  0  0  0  3  0  0  0  0  0  0
    3.8370   -6.2690    4.3370 C   0  0  0  0  0  3  0  0  0  0  0  0
    4.2190   -7.5470    3.9240 C   0  0  0  0  0  0  0  0  0  0  0  0
    3.3770   -8.6440    4.1330 C   0  0  0  0  0  3  0  0  0  0  0  0
    2.1670   -8.4690    4.8070 C   0  0  0  0  0  3  0  0  0  0  0  0
    5.4090   -7.6600    3.2420 O   0  0  0  0  0  0  0  0  0  0  0  0
    5.4280   -7.1980    1.9450 C   0  0  0  0  0  0  0  0  0  0  0  0
    4.5000   -7.6030    0.9830 C   0  0  0  0  0  3  0  0  0  0  0  0
    4.6010   -7.1240   -0.3240 C   0  0  0  0  0  3  0  0  0  0  0  0
    5.6360   -6.2540   -0.6700 C   0  0  0  0  0  3  0  0  0  0  0  0
    6.5760   -5.8670    0.2860 C   0  0  0  0  0  3  0  0  0  0  0  0
    6.4770   -6.3460    1.5930 C   0  0  0  0  0  3  0  0  0  0  0  0
   -4.5040   -8.7490    8.3800 C   0  0  0  0  0  0  0  0  0  0  0  0
   -5.0490   -8.8310    9.5230 O   0  0  0  0  0  1  0  0  0  0  0  0
   -5.0560   -9.0080    7.2650 O   0  0  0  0  0  0  0  0  0  0  0  0
  1  4  1  0  0  0  0
  2  1  1  0  0  0  0
  3  2  2  0  0  0  0
  4  5  2  0  0  0  0
  5  6  1  0  0  0  0
  7 29  1  0  0  0  0
  7  6  2  0  0  0  0
  8  4  1  0  0  0  0
  8  7  1  0  0  0  0
 10  9  1  1  0  0  0
 10 11  1  0  0  0  0
 12 11  1  0  0  0  0
 13 12  1  0  0  0  0
 14 15  1  0  0  0  0
 14 13  1  0  0  0  0
 15  1  1  6  0  0  0
 15 10  1  0  0  0  0
 16  2  1  0  0  0  0
 17 16  1  0  0  0  0
 18 17  2  0  0  0  0
 19 20  2  0  0  0  0
 19 18  1  0  0  0  0
 20 21  1  0  0  0  0
 21 16  2  0  0  0  0
 22 19  1  0  0  0  0
 23 22  1  0  0  0  0
 24 23  2  0  0  0  0
 25 24  1  0  0  0  0
 26 25  2  0  0  0  0
 26 27  1  0  0  0  0
 27 28  2  0  0  0  0
 28 23  1  0  0  0  0
 29 30  1  0  0  0  0
 31 29  2  0  0  0  0
M  END
>  <minimizedAffinity>
-7.01245451

$$$$
