
 OpenBabel09122222393D

 31 34  0  0  1  0  0  0  0  0999 V2000
    1.6470   -6.9670    6.6560 N   0  0  0  0  0  0  0  0  0  0  0  0
    1.9180   -6.9340    8.0340 C   0  0  0  0  0  0  0  0  0  0  0  0
    1.3220   -7.5400    8.9230 O   0  0  0  0  0  0  0  0  0  0  0  0
    0.3660   -7.3700    6.2390 C   0  0  0  0  0  0  0  0  0  0  0  0
    0.1100   -7.8770    5.0510 N   0  0  0  0  0  0  0  0  0  0  0  0
   -1.2570   -8.0470    4.9020 C   0  0  0  0  0  3  0  0  0  0  0  0
   -2.0270   -7.6200    5.9580 C   0  0  0  0  0  0  0  0  0  0  0  0
   -1.0190   -7.0190    7.1960 S   0  0  0  0  0  0  0  0  0  0  0  0
    2.4660   -4.3680    5.2320 C   0  0  0  0  0  1  0  0  0  0  0  0
    2.6080   -5.7540    4.5980 C   0  0  1  0  0  3  0  0  0  0  0  0
    3.8170   -5.7570    3.6440 C   0  0  0  0  0  2  0  0  0  0  0  0
    4.0330   -7.1240    3.0020 C   0  0  0  0  0  2  0  0  0  0  0  0
    4.1930   -8.2160    4.0510 C   0  0  0  0  0  2  0  0  0  0  0  0
    3.0040   -8.2520    5.0060 C   0  0  0  0  0  2  0  0  0  0  0  0
    2.7540   -6.8780    5.6630 C   0  0  2  0  0  3  0  0  0  0  0  0
    3.0750   -6.1330    8.4940 C   0  0  0  0  0  0  0  0  0  0  0  0
    4.2980   -6.7740    8.7250 C   0  0  0  0  0  3  0  0  0  0  0  0
    5.3950   -6.0270    9.1570 C   0  0  0  0  0  3  0  0  0  0  0  0
    5.2640   -4.6510    9.3510 C   0  0  0  0  0  0  0  0  0  0  0  0
    4.0280   -4.0210    9.1720 C   0  0  0  0  0  3  0  0  0  0  0  0
    2.9280   -4.7650    8.7440 C   0  0  0  0  0  3  0  0  0  0  0  0
    6.3730   -3.9690    9.7980 O   0  0  0  0  0  0  0  0  0  0  0  0
    6.8580   -2.9710    8.9840 C   0  0  0  0  0  0  0  0  0  0  0  0
    7.3400   -3.2140    7.6940 C   0  0  0  0  0  3  0  0  0  0  0  0
    7.8530   -2.1600    6.9370 C   0  0  0  0  0  3  0  0  0  0  0  0
    7.8990   -0.8720    7.4720 C   0  0  0  0  0  3  0  0  0  0  0  0
    7.4380   -0.6350    8.7670 C   0  0  0  0  0  3  0  0  0  0  0  0
    6.9250   -1.6870    9.5280 C   0  0  0  0  0  3  0  0  0  0  0  0
   -3.5020   -7.6750    5.9730 C   0  0  0  0  0  0  0  0  0  0  0  0
   -4.0450   -8.7730    6.3020 O   0  0  0  0  0  1  0  0  0  0  0  0
   -4.1060   -6.6000    5.6650 O   0  0  0  0  0  0  0  0  0  0  0  0
  1  2  1  0  0  0  0
  2 16  1  0  0  0  0
  2  3  2  0  0  0  0
  4  1  1  0  0  0  0
  4  8  1  0  0  0  0
  5  4  2  0  0  0  0
  6  5  1  0  0  0  0
  6  7  2  0  0  0  0
  7 29  1  0  0  0  0
  7  8  1  0  0  0  0
 10  9  1  1  0  0  0
 10 15  1  0  0  0  0
 11 10  1  0  0  0  0
 12 11  1  0  0  0  0
 12 13  1  0  0  0  0
 13 14  1  0  0  0  0
 14 15  1  0  0  0  0
 15  1  1  6  0  0  0
 16 17  2  0  0  0  0
 16 21  1  0  0  0  0
 17 18  1  0  0  0  0
 18 19  2  0  0  0  0
 19 22  1  0  0  0  0
 20 19  1  0  0  0  0
 21 20  2  0  0  0  0
 23 28  1  0  0  0  0
 23 22  1  0  0  0  0
 24 23  2  0  0  0  0
 25 26  2  0  0  0  0
 25 24  1  0  0  0  0
 26 27  1  0  0  0  0
 27 28  2  0  0  0  0
 29 30  1  0  0  0  0
 31 29  2  0  0  0  0
M  END
>  <minimizedAffinity>
-6.38837194

$$$$
