
 OpenBabel09122222393D

 31 34  0  0  1  0  0  0  0  0999 V2000
    3.8810   -5.7330    4.0120 N   0  0  0  0  0  0  0  0  0  0  0  0
    4.1020   -4.3640    4.2370 C   0  0  0  0  0  0  0  0  0  0  0  0
    4.1100   -3.4650    3.3990 O   0  0  0  0  0  0  0  0  0  0  0  0
    4.0880   -6.2360    2.7160 C   0  0  0  0  0  0  0  0  0  0  0  0
    3.5110   -7.3250    2.2520 N   0  0  0  0  0  0  0  0  0  0  0  0
    4.0190   -7.6260    0.9990 C   0  0  0  0  0  3  0  0  0  0  0  0
    5.0130   -6.7900    0.5450 C   0  0  0  0  0  0  0  0  0  0  0  0
    5.3030   -5.5670    1.6990 S   0  0  0  0  0  0  0  0  0  0  0  0
    4.6280   -8.6380    4.6900 C   0  0  0  0  0  1  0  0  0  0  0  0
    3.1980   -8.0970    4.7720 C   0  0  1  0  0  3  0  0  0  0  0  0
    2.4360   -8.8380    5.8860 C   0  0  0  0  0  2  0  0  0  0  0  0
    1.0090   -8.3220    6.0410 C   0  0  0  0  0  2  0  0  0  0  0  0
    0.9820   -6.8220    6.3010 C   0  0  0  0  0  2  0  0  0  0  0  0
    1.7170   -6.0520    5.2080 C   0  0  0  0  0  2  0  0  0  0  0  0
    3.1610   -6.5620    5.0200 C   0  0  2  0  0  3  0  0  0  0  0  0
    4.2970   -3.9150    5.6350 C   0  0  0  0  0  0  0  0  0  0  0  0
    3.6740   -2.7390    6.0660 C   0  0  0  0  0  3  0  0  0  0  0  0
    3.8500   -2.3080    7.3810 C   0  0  0  0  0  3  0  0  0  0  0  0
    4.6430   -3.0550    8.2540 C   0  0  0  0  0  0  0  0  0  0  0  0
    5.3100   -4.2000    7.8080 C   0  0  0  0  0  3  0  0  0  0  0  0
    5.1380   -4.6320    6.4920 C   0  0  0  0  0  3  0  0  0  0  0  0
    4.7990   -2.5710    9.5340 O   0  0  0  0  0  0  0  0  0  0  0  0
    5.5940   -1.4580    9.6850 C   0  0  0  0  0  0  0  0  0  0  0  0
    5.0740   -0.1650    9.7890 C   0  0  0  0  0  3  0  0  0  0  0  0
    5.9390    0.9240    9.9020 C   0  0  0  0  0  3  0  0  0  0  0  0
    7.3200    0.7210    9.8950 C   0  0  0  0  0  3  0  0  0  0  0  0
    7.8390   -0.5680    9.7690 C   0  0  0  0  0  3  0  0  0  0  0  0
    6.9750   -1.6580    9.6550 C   0  0  0  0  0  3  0  0  0  0  0  0
    5.7110   -6.9680   -0.7420 C   0  0  0  0  0  0  0  0  0  0  0  0
    6.4190   -6.0040   -1.1650 O   0  0  0  0  0  1  0  0  0  0  0  0
    5.5500   -8.0910   -1.3160 O   0  0  0  0  0  0  0  0  0  0  0  0
  1  2  1  0  0  0  0
  2 16  1  0  0  0  0
  3  2  2  0  0  0  0
  4  1  1  0  0  0  0
  5  4  2  0  0  0  0
  6  5  1  0  0  0  0
  7  6  2  0  0  0  0
  7  8  1  0  0  0  0
  8  4  1  0  0  0  0
 10  9  1  1  0  0  0
 10 15  1  0  0  0  0
 10 11  1  0  0  0  0
 11 12  1  0  0  0  0
 12 13  1  0  0  0  0
 14 13  1  0  0  0  0
 15  1  1  6  0  0  0
 15 14  1  0  0  0  0
 16 17  2  0  0  0  0
 16 21  1  0  0  0  0
 17 18  1  0  0  0  0
 18 19  2  0  0  0  0
 19 22  1  0  0  0  0
 20 19  1  0  0  0  0
 21 20  2  0  0  0  0
 22 23  1  0  0  0  0
 23 24  1  0  0  0  0
 24 25  2  0  0  0  0
 26 25  1  0  0  0  0
 27 26  2  0  0  0  0
 28 23  2  0  0  0  0
 28 27  1  0  0  0  0
 29  7  1  0  0  0  0
 30 29  1  0  0  0  0
 31 29  2  0  0  0  0
M  END
>  <minimizedAffinity>
-4.84174967

$$$$
