
 OpenBabel09122222393D

 31 34  0  0  1  0  0  0  0  0999 V2000
    3.7380   -5.5910    7.0350 N   0  0  0  0  0  0  0  0  0  0  0  0
    3.4260   -6.1450    5.7830 C   0  0  0  0  0  0  0  0  0  0  0  0
    4.1910   -6.3190    4.8360 O   0  0  0  0  0  0  0  0  0  0  0  0
    4.8810   -4.7800    7.1370 C   0  0  0  0  0  0  0  0  0  0  0  0
    5.5380   -4.5800    8.2610 N   0  0  0  0  0  0  0  0  0  0  0  0
    6.5290   -3.6330    8.0600 C   0  0  0  0  0  3  0  0  0  0  0  0
    6.5820   -3.0880    6.7980 C   0  0  0  0  0  0  0  0  0  0  0  0
    5.3820   -3.7990    5.8170 S   0  0  0  0  0  0  0  0  0  0  0  0
    4.0090   -8.4640    8.0970 C   0  0  0  0  0  1  0  0  0  0  0  0
    2.7550   -7.6090    8.2970 C   0  0  1  0  0  3  0  0  0  0  0  0
    2.0810   -7.9960    9.6270 C   0  0  0  0  0  2  0  0  0  0  0  0
    0.8380   -7.1550    9.9020 C   0  0  0  0  0  2  0  0  0  0  0  0
    1.1570   -5.6660    9.8930 C   0  0  0  0  0  2  0  0  0  0  0  0
    1.8140   -5.2430    8.5820 C   0  0  0  0  0  2  0  0  0  0  0  0
    3.0690   -6.0860    8.2710 C   0  0  2  0  0  3  0  0  0  0  0  0
    2.0450   -6.6330    5.5650 C   0  0  0  0  0  0  0  0  0  0  0  0
    1.8230   -8.0060    5.4150 C   0  0  0  0  0  3  0  0  0  0  0  0
    0.5250   -8.4750    5.2120 C   0  0  0  0  0  3  0  0  0  0  0  0
   -0.5390   -7.5730    5.1620 C   0  0  0  0  0  0  0  0  0  0  0  0
   -0.3100   -6.1960    5.2580 C   0  0  0  0  0  3  0  0  0  0  0  0
    0.9880   -5.7230    5.4570 C   0  0  0  0  0  3  0  0  0  0  0  0
   -1.7950   -8.0900    4.9380 O   0  0  0  0  0  0  0  0  0  0  0  0
   -2.7150   -7.9500    5.9530 C   0  0  0  0  0  0  0  0  0  0  0  0
   -3.2920   -9.0400    6.6070 C   0  0  0  0  0  3  0  0  0  0  0  0
   -4.2470   -8.8260    7.6020 C   0  0  0  0  0  3  0  0  0  0  0  0
   -4.6340   -7.5260    7.9300 C   0  0  0  0  0  3  0  0  0  0  0  0
   -4.0720   -6.4380    7.2610 C   0  0  0  0  0  3  0  0  0  0  0  0
   -3.1180   -6.6500    6.2650 C   0  0  0  0  0  3  0  0  0  0  0  0
    7.5360   -2.0350    6.3990 C   0  0  0  0  0  0  0  0  0  0  0  0
    7.9420   -2.0360    5.1970 O   0  0  0  0  0  0  0  0  0  0  0  0
    7.8610   -1.2020    7.3010 O   0  0  0  0  0  1  0  0  0  0  0  0
  1  4  1  0  0  0  0
  2  1  1  0  0  0  0
  3  2  2  0  0  0  0
  4  5  2  0  0  0  0
  6  5  1  0  0  0  0
  7  6  2  0  0  0  0
  8  7  1  0  0  0  0
  8  4  1  0  0  0  0
 10  9  1  1  0  0  0
 10 11  1  0  0  0  0
 11 12  1  0  0  0  0
 13 12  1  0  0  0  0
 14 13  1  0  0  0  0
 15  1  1  6  0  0  0
 15 10  1  0  0  0  0
 15 14  1  0  0  0  0
 16  2  1  0  0  0  0
 17 16  2  0  0  0  0
 18 17  1  0  0  0  0
 19 18  2  0  0  0  0
 19 20  1  0  0  0  0
 20 21  2  0  0  0  0
 21 16  1  0  0  0  0
 22 19  1  0  0  0  0
 22 23  1  0  0  0  0
 23 28  2  0  0  0  0
 23 24  1  0  0  0  0
 24 25  2  0  0  0  0
 25 26  1  0  0  0  0
 27 26  2  0  0  0  0
 28 27  1  0  0  0  0
 29  7  1  0  0  0  0
 29 31  1  0  0  0  0
 30 29  2  0  0  0  0
M  END
>  <minimizedAffinity>
-5.16028929

$$$$
