49775080
  -OEChem-09052205333D

 73 77  0     1  0  0  0  0  0999 V2000
   -1.4316    3.0297    1.3443 S   0  0  0  0  0  0  0  0  0  0  0  0
    1.4374   -1.3715    2.2034 F   0  0  0  0  0  0  0  0  0  0  0  0
   -0.2760    3.5825    2.0305 O   0  0  0  0  0  0  0  0  0  0  0  0
   -2.5427    2.5082    2.1211 O   0  0  0  0  0  0  0  0  0  0  0  0
    0.2682   -0.4112   -4.1998 O   0  0  0  0  0  0  0  0  0  0  0  0
   -1.6088   -1.1810    2.7067 O   0  0  0  0  0  0  0  0  0  0  0  0
    5.5079    0.4911    0.6125 O   0  0  0  0  0  0  0  0  0  0  0  0
   -4.7860   -3.1116    0.8432 O   0  0  0  0  0  0  0  0  0  0  0  0
   -0.8288   -0.6425    0.5620 N   0  0  0  0  0  0  0  0  0  0  0  0
   -0.6570    0.9008   -1.9902 N   0  0  0  0  0  0  0  0  0  0  0  0
   -3.2038   -2.0416   -0.3680 N   0  0  0  0  0  0  0  0  0  0  0  0
   -2.7813    3.8328   -0.9260 C   0  0  0  0  0  0  0  0  0  0  0  0
   -2.0698    4.3258    0.3285 C   0  0  0  0  0  0  0  0  0  0  0  0
   -1.7839    3.0096   -1.7564 C   0  0  0  0  0  0  0  0  0  0  0  0
   -0.8773    1.7683    0.2644 C   0  0  0  0  0  0  0  0  0  0  0  0
   -1.0915    1.8407   -1.0676 C   0  0  0  0  0  0  0  0  0  0  0  0
   -0.1602    0.6209    0.9472 C   0  0  2  0  0  0  0  0  0  0  0  0
   -3.2191    5.0618   -1.7496 C   0  0  0  0  0  0  0  0  0  0  0  0
   -4.0447    3.0121   -0.6053 C   0  0  0  0  0  0  0  0  0  0  0  0
    1.3653    0.5827    0.8571 C   0  0  0  0  0  0  0  0  0  0  0  0
   -0.3247   -0.4625   -1.8635 C   0  0  0  0  0  0  0  0  0  0  0  0
   -0.4563   -1.2285   -0.6908 C   0  0  0  0  0  0  0  0  0  0  0  0
   -1.7070   -1.2550    1.4813 C   0  0  0  0  0  0  0  0  0  0  0  0
    0.1251   -1.1137   -3.0339 C   0  0  0  0  0  0  0  0  0  0  0  0
    2.0798   -0.4268    1.5021 C   0  0  0  0  0  0  0  0  0  0  0  0
    2.0430    1.5611    0.1296 C   0  0  0  0  0  0  0  0  0  0  0  0
   -0.1525   -2.6059   -0.7244 C   0  0  0  0  0  0  0  0  0  0  0  0
    0.4206   -2.4761   -3.0532 C   0  0  0  0  0  0  0  0  0  0  0  0
    0.2779   -3.2244   -1.8957 C   0  0  0  0  0  0  0  0  0  0  0  0
   -2.9040   -1.9568    0.9675 C   0  0  0  0  0  0  0  0  0  0  0  0
    3.4718   -0.4581    1.4196 C   0  0  0  0  0  0  0  0  0  0  0  0
    3.4350    1.5300    0.0471 C   0  0  0  0  0  0  0  0  0  0  0  0
    4.1494    0.5203    0.6921 C   0  0  0  0  0  0  0  0  0  0  0  0
   -3.8621   -2.6052    1.7065 C   0  0  0  0  0  0  0  0  0  0  0  0
   -4.3214   -2.7321   -0.3788 C   0  0  0  0  0  0  0  0  0  0  0  0
   -4.0840   -2.8502    3.1360 C   0  0  0  0  0  0  0  0  0  0  0  0
    6.1344   -0.7893    0.6773 C   0  0  0  0  0  0  0  0  0  0  0  0
   -5.1331   -3.1472   -1.5329 C   0  0  0  0  0  0  0  0  0  0  0  0
    7.4395   -0.7491   -0.0660 C   0  0  0  0  0  0  0  0  0  0  0  0
    8.4774    0.2116    0.4385 C   0  0  0  0  0  0  0  0  0  0  0  0
    7.6748   -1.5495   -1.1167 C   0  0  0  0  0  0  0  0  0  0  0  0
   -2.7335    4.9288    0.9586 H   0  0  0  0  0  0  0  0  0  0  0  0
   -1.2148    4.9581    0.0576 H   0  0  0  0  0  0  0  0  0  0  0  0
   -2.3225    2.6324   -2.6383 H   0  0  0  0  0  0  0  0  0  0  0  0
   -0.9940    3.6669   -2.1478 H   0  0  0  0  0  0  0  0  0  0  0  0
   -0.3451    0.7410    2.0240 H   0  0  0  0  0  0  0  0  0  0  0  0
   -2.3623    5.6936   -2.0103 H   0  0  0  0  0  0  0  0  0  0  0  0
   -3.7045    4.7605   -2.6848 H   0  0  0  0  0  0  0  0  0  0  0  0
   -3.9290    5.6803   -1.1885 H   0  0  0  0  0  0  0  0  0  0  0  0
   -4.5992    2.7761   -1.5212 H   0  0  0  0  0  0  0  0  0  0  0  0
   -3.8196    2.0579   -0.1207 H   0  0  0  0  0  0  0  0  0  0  0  0
   -4.7185    3.5715    0.0534 H   0  0  0  0  0  0  0  0  0  0  0  0
   -0.6313    1.2385   -2.9488 H   0  0  0  0  0  0  0  0  0  0  0  0
    1.5359    2.3749   -0.3768 H   0  0  0  0  0  0  0  0  0  0  0  0
   -0.2262   -3.2092    0.1782 H   0  0  0  0  0  0  0  0  0  0  0  0
    0.7609   -2.9620   -3.9634 H   0  0  0  0  0  0  0  0  0  0  0  0
    0.5101   -4.2850   -1.8977 H   0  0  0  0  0  0  0  0  0  0  0  0
    3.9898   -1.2456    1.9586 H   0  0  0  0  0  0  0  0  0  0  0  0
    3.9583    2.2963   -0.5182 H   0  0  0  0  0  0  0  0  0  0  0  0
    0.5809   -1.0106   -4.8988 H   0  0  0  0  0  0  0  0  0  0  0  0
   -3.2325   -3.3802    3.5738 H   0  0  0  0  0  0  0  0  0  0  0  0
   -4.9783   -3.4589    3.3036 H   0  0  0  0  0  0  0  0  0  0  0  0
   -4.2163   -1.9059    3.6729 H   0  0  0  0  0  0  0  0  0  0  0  0
    5.4956   -1.5683    0.2399 H   0  0  0  0  0  0  0  0  0  0  0  0
    6.3253   -1.0434    1.7270 H   0  0  0  0  0  0  0  0  0  0  0  0
   -4.6791   -2.8066   -2.4683 H   0  0  0  0  0  0  0  0  0  0  0  0
   -6.1394   -2.7230   -1.4677 H   0  0  0  0  0  0  0  0  0  0  0  0
   -5.2173   -4.2373   -1.5719 H   0  0  0  0  0  0  0  0  0  0  0  0
    8.1178    1.2424    0.3592 H   0  0  0  0  0  0  0  0  0  0  0  0
    9.4126    0.1421   -0.1273 H   0  0  0  0  0  0  0  0  0  0  0  0
    8.7087    0.0032    1.4881 H   0  0  0  0  0  0  0  0  0  0  0  0
    6.9271   -2.2491   -1.4752 H   0  0  0  0  0  0  0  0  0  0  0  0
    8.6221   -1.5231   -1.6451 H   0  0  0  0  0  0  0  0  0  0  0  0
  1  3  2  0  0  0  0
  1  4  2  0  0  0  0
  1 13  1  0  0  0  0
  1 15  1  0  0  0  0
  2 25  1  0  0  0  0
  5 24  1  0  0  0  0
  5 60  1  0  0  0  0
  6 23  2  0  0  0  0
  7 33  1  0  0  0  0
  7 37  1  0  0  0  0
  8 34  1  0  0  0  0
  8 35  1  0  0  0  0
  9 17  1  0  0  0  0
  9 22  1  0  0  0  0
  9 23  1  0  0  0  0
 10 16  1  0  0  0  0
 10 21  1  0  0  0  0
 10 53  1  0  0  0  0
 11 30  1  0  0  0  0
 11 35  2  0  0  0  0
 12 13  1  0  0  0  0
 12 14  1  0  0  0  0
 12 18  1  0  0  0  0
 12 19  1  0  0  0  0
 13 42  1  0  0  0  0
 13 43  1  0  0  0  0
 14 16  1  0  0  0  0
 14 44  1  0  0  0  0
 14 45  1  0  0  0  0
 15 16  2  0  0  0  0
 15 17  1  0  0  0  0
 17 20  1  0  0  0  0
 17 46  1  0  0  0  0
 18 47  1  0  0  0  0
 18 48  1  0  0  0  0
 18 49  1  0  0  0  0
 19 50  1  0  0  0  0
 19 51  1  0  0  0  0
 19 52  1  0  0  0  0
 20 25  2  0  0  0  0
 20 26  1  0  0  0  0
 21 22  2  0  0  0  0
 21 24  1  0  0  0  0
 22 27  1  0  0  0  0
 23 30  1  0  0  0  0
 24 28  2  0  0  0  0
 25 31  1  0  0  0  0
 26 32  2  0  0  0  0
 26 54  1  0  0  0  0
 27 29  2  0  0  0  0
 27 55  1  0  0  0  0
 28 29  1  0  0  0  0
 28 56  1  0  0  0  0
 29 57  1  0  0  0  0
 30 34  2  0  0  0  0
 31 33  2  0  0  0  0
 31 58  1  0  0  0  0
 32 33  1  0  0  0  0
 32 59  1  0  0  0  0
 34 36  1  0  0  0  0
 35 38  1  0  0  0  0
 36 61  1  0  0  0  0
 36 62  1  0  0  0  0
 36 63  1  0  0  0  0
 37 39  1  0  0  0  0
 37 64  1  0  0  0  0
 37 65  1  0  0  0  0
 38 66  1  0  0  0  0
 38 67  1  0  0  0  0
 38 68  1  0  0  0  0
 39 40  1  0  0  0  0
 39 41  2  0  0  0  0
 40 69  1  0  0  0  0
 40 70  1  0  0  0  0
 40 71  1  0  0  0  0
 41 72  1  0  0  0  0
 41 73  1  0  0  0  0
M  END
> <PUBCHEM_COMPOUND_CID>
49775080

> <PUBCHEM_CONFORMER_RMSD>
1

> <PUBCHEM_CONFORMER_DIVERSEORDER>
1
36
86
85
22
90
82
91
60
14
9
24
84
57
88
67
81
6
74
65
54
15
89
13
87
27
69
79
77
70
30
63
51
64
59
52
58
71
49
78
76
33
41
72
83
34
18
61
31
2
29
56
45
39
28
37
40
62
50
21
47
43
25
20
53
17
44
46
4
11
75
42
10
68
66
80
8
19
16
73
55
23
35
26
7
48
32
3
5
12
38

> <PUBCHEM_MMFF94_PARTIAL_CHARGES>
48
1 1.21
10 -0.6
11 -0.57
13 0.11
14 0.14
15 -0.16
16 -0.04
17 0.58
2 -0.19
20 -0.14
21 0.1
22 0.12
23 0.72
24 0.08
25 0.19
26 -0.15
27 -0.15
28 -0.15
29 -0.15
3 -0.65
30 0.14
31 -0.15
32 -0.15
33 0.08
34 -0.04
35 0.3
36 0.18
37 0.42
38 0.18
39 -0.28
4 -0.65
40 0.14
41 -0.3
5 -0.53
53 0.4
54 0.15
55 0.15
56 0.15
57 0.15
58 0.15
59 0.15
6 -0.57
60 0.45
7 -0.36
72 0.15
73 0.15
8 -0.28
9 -0.48

> <PUBCHEM_EFFECTIVE_ROTOR_COUNT>
7.2

> <PUBCHEM_PHARMACOPHORE_FEATURES>
13
1 10 cation
1 10 donor
1 3 acceptor
1 4 acceptor
1 5 donor
1 6 acceptor
1 7 acceptor
3 12 18 19 hydrophobe
5 8 11 30 34 35 rings
6 1 12 13 14 15 16 rings
6 20 25 26 31 32 33 rings
6 21 22 24 27 28 29 rings
7 9 10 15 16 17 21 22 rings

> <PUBCHEM_HEAVY_ATOM_COUNT>
41

> <PUBCHEM_ATOM_DEF_STEREO_COUNT>
1

> <PUBCHEM_ATOM_UDEF_STEREO_COUNT>
0

> <PUBCHEM_BOND_DEF_STEREO_COUNT>
0

> <PUBCHEM_BOND_UDEF_STEREO_COUNT>
0

> <PUBCHEM_ISOTOPIC_ATOM_COUNT>
0

> <PUBCHEM_COMPONENT_COUNT>
1

> <PUBCHEM_CACTVS_TAUTO_COUNT>
6

> <PUBCHEM_CONFORMER_ID>
02F781E800000001

> <PUBCHEM_MMFF94_ENERGY>
132.4211

> <PUBCHEM_FEATURE_SELFOVERLAP>
66.008

> <PUBCHEM_SHAPE_FINGERPRINT>
10985338 1 17040882411005653389
11578080 2 17771377238746119833
11991303 11 18190172378296464180
12058002 1 17458644297050949282
12082328 90 18259982670733359486
12107698 1 18336263531255253698
12156800 1 18190204350064359197
12422481 6 17631753619878577626
12597179 24 18197496216690579541
12788726 201 18187909703699308971
131258 38 15689233477729056871
13134695 92 17973440203121244395
13135754 10 18260548909655751110
13149001 5 17552661152966969911
133893 2 17268064640969924100
13540713 5 17605535675325823338
14068700 675 17750239256398534514
14118638 360 18260834847926662084
14400156 147 16519083191908584818
14713325 29 18271806770389045392
14955137 171 17972608959029662595
15131766 46 16483579974311429456
15264996 19 18116414978569683341
15439362 3 17693938497484825984
15444296 9 18272095985218674511
15484559 13 17765401302486644357
15775530 1 17985568679141970055
15876981 60 18041006154188153964
16090146 7 16371015104579377978
21716022 299 16954251188987210198
23419403 2 17200267796386566493
3493558 16 17313938766178681533
3552219 110 17313677052219684028
4058900 60 17760924043888321432
497634 4 17603580829746076738
513202 73 18411982489965220990

> <PUBCHEM_SHAPE_MULTIPOLES>
790.18
12.7
5.68
3.08
34.77
4.55
-1.37
-5.43
1.99
-11.01
-0.95
-1.98
-1.6
2.51

> <PUBCHEM_SHAPE_SELFOVERLAP>
1709.374

> <PUBCHEM_SHAPE_VOLUME>
437.7

> <PUBCHEM_COORDINATE_TYPE>
2
5
10

$$$$
