
 OpenBabel09132204463D

 17 17  0  0  0  0  0  0  0  0999 V2000
    9.9110    6.2260    1.6180 C   0  0  0  0  0  0  0  0  0  0  0  0
    9.5560    6.0720    0.3350 C   0  0  0  0  0  3  0  0  0  0  0  0
    9.1290    7.2510   -0.4280 C   0  0  0  0  0  0  0  0  0  0  0  0
    8.7900    7.1610   -1.6070 O   0  0  0  0  0  0  0  0  0  0  0  0
    9.1200    8.5620    0.2620 C   0  0  0  0  0  0  0  0  0  0  0  0
    9.4940    8.5830    1.5470 C   0  0  0  0  0  0  0  0  0  0  0  0
    9.8850    7.4560    2.2590 O   0  0  0  0  0  0  0  0  0  0  0  0
    9.5150    9.9000    2.3240 C   0  0  0  0  0  0  0  0  0  0  0  0
   10.3900   10.7300    1.9440 O   0  0  0  0  0  0  0  0  0  0  0  0
    8.6090   10.0160    3.2010 O   0  0  0  0  0  1  0  0  0  0  0  0
   10.3510    5.0600    2.4400 C   0  0  0  0  0  0  0  0  0  0  0  0
   10.5360    5.1000    3.6470 O   0  0  0  0  0  0  0  0  0  0  0  0
   10.5310    3.9510    1.6660 O   0  0  0  0  0  0  0  0  0  0  0  0
    9.3860    1.8190    1.7940 C   0  0  0  0  0  1  0  0  0  0  0  0
   10.4860    2.6970    2.3620 C   0  0  0  0  0  2  0  0  0  0  0  0
    8.7270    9.6660   -0.4660 O   0  0  0  0  0  0  0  0  0  0  0  0
    8.5170    9.3230   -1.3560 H   0  0  0  0  0  0  0  0  0  0  0  0
  1  7  1  0  0  0  0
  1 11  1  0  0  0  0
  2  1  2  0  0  0  0
  3  5  1  0  0  0  0
  3  2  1  0  0  0  0
  4  3  2  0  0  0  0
  5  6  2  0  0  0  0
  6  7  1  0  0  0  0
  6  8  1  0  0  0  0
  8 10  1  0  0  0  0
  9  8  2  0  0  0  0
 11 12  2  0  0  0  0
 13 15  1  0  0  0  0
 13 11  1  0  0  0  0
 14 15  1  0  0  0  0
 16  5  1  0  0  0  0
 17 16  1  0  0  0  0
M  END
>  <minimizedAffinity>
-4.27535582

$$$$
