
 OpenBabel09132204463D

 17 17  0  0  0  0  0  0  0  0999 V2000
    9.8040    5.4430    0.4490 C   0  0  0  0  0  0  0  0  0  0  0  0
    9.5080    5.8260   -0.8010 C   0  0  0  0  0  3  0  0  0  0  0  0
    9.1060    7.2180   -1.0380 C   0  0  0  0  0  0  0  0  0  0  0  0
    8.8220    7.6170   -2.1660 O   0  0  0  0  0  0  0  0  0  0  0  0
    9.0550    8.1360    0.1240 C   0  0  0  0  0  0  0  0  0  0  0  0
    9.3710    7.6300    1.3220 C   0  0  0  0  0  0  0  0  0  0  0  0
    9.7390    6.3070    1.5320 O   0  0  0  0  0  0  0  0  0  0  0  0
    9.3450    8.5180    2.5670 C   0  0  0  0  0  0  0  0  0  0  0  0
    8.1970    8.9230    2.9110 O   0  0  0  0  0  0  0  0  0  0  0  0
   10.4670    8.6770    3.1310 O   0  0  0  0  0  1  0  0  0  0  0  0
   10.2170    4.0390    0.7460 C   0  0  0  0  0  0  0  0  0  0  0  0
   10.2380    3.1400   -0.0820 O   0  0  0  0  0  0  0  0  0  0  0  0
   10.5560    3.8910    2.0580 O   0  0  0  0  0  0  0  0  0  0  0  0
   10.4290    2.6220    4.1190 C   0  0  0  0  0  1  0  0  0  0  0  0
   10.3620    2.5780    2.6030 C   0  0  0  0  0  2  0  0  0  0  0  0
    8.6860    9.4450   -0.1100 O   0  0  0  0  0  0  0  0  0  0  0  0
    8.5190    9.4940   -1.0710 H   0  0  0  0  0  0  0  0  0  0  0  0
  1 11  1  0  0  0  0
  1  7  1  0  0  0  0
  2  1  2  0  0  0  0
  3  2  1  0  0  0  0
  3  5  1  0  0  0  0
  4  3  2  0  0  0  0
  5  6  2  0  0  0  0
  6  7  1  0  0  0  0
  6  8  1  0  0  0  0
  8  9  2  0  0  0  0
  8 10  1  0  0  0  0
 11 13  1  0  0  0  0
 12 11  2  0  0  0  0
 13 15  1  0  0  0  0
 15 14  1  0  0  0  0
 16  5  1  0  0  0  0
 17 16  1  0  0  0  0
M  END
>  <minimizedAffinity>
-4.67241287

$$$$
