
 OpenBabel09132204463D

 17 17  0  0  0  0  0  0  0  0999 V2000
    9.5330    8.3110   -1.9440 C   0  0  0  0  0  0  0  0  0  0  0  0
   10.1160    9.5090   -1.8010 C   0  0  0  0  0  3  0  0  0  0  0  0
   10.0370   10.4710   -2.9090 C   0  0  0  0  0  0  0  0  0  0  0  0
   10.5580   11.5820   -2.8270 O   0  0  0  0  0  0  0  0  0  0  0  0
    9.3060   10.0660   -4.1320 C   0  0  0  0  0  0  0  0  0  0  0  0
    8.7710    8.8390   -4.1510 C   0  0  0  0  0  0  0  0  0  0  0  0
    8.8630    7.9370   -3.0990 O   0  0  0  0  0  0  0  0  0  0  0  0
    7.9980    8.3540   -5.3780 C   0  0  0  0  0  0  0  0  0  0  0  0
    8.0620    7.1080   -5.5910 O   0  0  0  0  0  1  0  0  0  0  0  0
    7.3380    9.2500   -5.9810 O   0  0  0  0  0  0  0  0  0  0  0  0
    9.5840    7.2970   -0.8500 C   0  0  0  0  0  0  0  0  0  0  0  0
    9.0340    6.2060   -0.8970 O   0  0  0  0  0  0  0  0  0  0  0  0
   10.3140    7.7490    0.2100 O   0  0  0  0  0  0  0  0  0  0  0  0
    9.1330    8.8730    2.0030 C   0  0  0  0  0  1  0  0  0  0  0  0
    9.7130    7.5640    1.5000 C   0  0  0  0  0  2  0  0  0  0  0  0
    9.2290   10.9800   -5.1630 O   0  0  0  0  0  0  0  0  0  0  0  0
    9.7160   11.7650   -4.8440 H   0  0  0  0  0  0  0  0  0  0  0  0
  1  2  2  0  0  0  0
  1 11  1  0  0  0  0
  3  4  2  0  0  0  0
  3  2  1  0  0  0  0
  5  3  1  0  0  0  0
  6  5  2  0  0  0  0
  6  7  1  0  0  0  0
  7  1  1  0  0  0  0
  8  6  1  0  0  0  0
  9  8  1  0  0  0  0
 10  8  2  0  0  0  0
 11 13  1  0  0  0  0
 12 11  2  0  0  0  0
 13 15  1  0  0  0  0
 15 14  1  0  0  0  0
 16 17  1  0  0  0  0
 16  5  1  0  0  0  0
M  END
>  <minimizedAffinity>
-4.6602602

$$$$
