
 OpenBabel09132204463D

 17 17  0  0  0  0  0  0  0  0999 V2000
    9.4440    7.8680    0.6800 C   0  0  0  0  0  0  0  0  0  0  0  0
    9.9530    8.0390    1.9080 C   0  0  0  0  0  3  0  0  0  0  0  0
    9.8750    9.3690    2.5270 C   0  0  0  0  0  0  0  0  0  0  0  0
   10.3300    9.5770    3.6500 O   0  0  0  0  0  0  0  0  0  0  0  0
    9.2250   10.4570    1.7610 C   0  0  0  0  0  0  0  0  0  0  0  0
    8.7580   10.1580    0.5430 C   0  0  0  0  0  0  0  0  0  0  0  0
    8.8500    8.8970   -0.0350 O   0  0  0  0  0  0  0  0  0  0  0  0
    8.0710   11.2290   -0.3050 C   0  0  0  0  0  0  0  0  0  0  0  0
    7.0730   11.7820    0.2400 O   0  0  0  0  0  1  0  0  0  0  0  0
    8.6310   11.4700   -1.4150 O   0  0  0  0  0  0  0  0  0  0  0  0
    9.4990    6.5380    0.0040 C   0  0  0  0  0  0  0  0  0  0  0  0
    8.6910    6.1570   -0.8300 O   0  0  0  0  0  0  0  0  0  0  0  0
   10.5590    5.8030    0.4460 O   0  0  0  0  0  0  0  0  0  0  0  0
   10.5570    3.4410   -0.0960 C   0  0  0  0  0  1  0  0  0  0  0  0
   10.2400    4.4970    0.9470 C   0  0  0  0  0  2  0  0  0  0  0  0
    9.1460   11.6990    2.3560 O   0  0  0  0  0  0  0  0  0  0  0  0
    9.5740   11.5920    3.2270 H   0  0  0  0  0  0  0  0  0  0  0  0
  1  2  2  0  0  0  0
  2  3  1  0  0  0  0
  3  4  2  0  0  0  0
  5 16  1  0  0  0  0
  5  3  1  0  0  0  0
  6  5  2  0  0  0  0
  7  6  1  0  0  0  0
  7  1  1  0  0  0  0
  8  9  1  0  0  0  0
  8  6  1  0  0  0  0
 10  8  2  0  0  0  0
 11 13  1  0  0  0  0
 11  1  1  0  0  0  0
 12 11  2  0  0  0  0
 13 15  1  0  0  0  0
 14 15  1  0  0  0  0
 16 17  1  0  0  0  0
M  END
>  <minimizedAffinity>
-4.1036787

$$$$
