
 OpenBabel09132204463D

 17 17  0  0  0  0  0  0  0  0999 V2000
    9.9850    4.5500    0.4680 C   0  0  0  0  0  0  0  0  0  0  0  0
    9.4220    5.2310   -0.5390 C   0  0  0  0  0  3  0  0  0  0  0  0
    9.1020    6.6510   -0.3430 C   0  0  0  0  0  0  0  0  0  0  0  0
    8.5820    7.3170   -1.2360 O   0  0  0  0  0  0  0  0  0  0  0  0
    9.4290    7.2640    0.9660 C   0  0  0  0  0  0  0  0  0  0  0  0
    9.9880    6.4750    1.8920 C   0  0  0  0  0  0  0  0  0  0  0  0
   10.2740    5.1300    1.6940 O   0  0  0  0  0  0  0  0  0  0  0  0
   10.3570    7.0390    3.2640 C   0  0  0  0  0  0  0  0  0  0  0  0
   10.4830    6.1760    4.1800 O   0  0  0  0  0  1  0  0  0  0  0  0
   10.5570    8.2890    3.2910 O   0  0  0  0  0  0  0  0  0  0  0  0
   10.3290    3.1050    0.3220 C   0  0  0  0  0  0  0  0  0  0  0  0
   10.5590    2.5580   -0.7470 O   0  0  0  0  0  0  0  0  0  0  0  0
   10.3420    2.4750    1.5320 O   0  0  0  0  0  0  0  0  0  0  0  0
    9.4200    0.2350    1.5080 C   0  0  0  0  0  1  0  0  0  0  0  0
    9.1770    1.6960    1.8370 C   0  0  0  0  0  2  0  0  0  0  0  0
    9.1350    8.6010    1.1370 O   0  0  0  0  0  0  0  0  0  0  0  0
    8.7370    8.8840    0.2910 H   0  0  0  0  0  0  0  0  0  0  0  0
  1  7  1  0  0  0  0
  2  3  1  0  0  0  0
  2  1  2  0  0  0  0
  3  5  1  0  0  0  0
  4  3  2  0  0  0  0
  5 16  1  0  0  0  0
  5  6  2  0  0  0  0
  6  8  1  0  0  0  0
  7  6  1  0  0  0  0
  8 10  2  0  0  0  0
  8  9  1  0  0  0  0
 11  1  1  0  0  0  0
 11 13  1  0  0  0  0
 12 11  2  0  0  0  0
 13 15  1  0  0  0  0
 14 15  1  0  0  0  0
 17 16  1  0  0  0  0
M  END
>  <minimizedAffinity>
-4.04412746

$$$$
