
 OpenBabel09132204463D

 17 17  0  0  0  0  0  0  0  0999 V2000
    9.6150    7.7430   -0.8170 C   0  0  0  0  0  0  0  0  0  0  0  0
    9.8500    6.4780   -0.4430 C   0  0  0  0  0  3  0  0  0  0  0  0
    9.9390    6.1680    0.9910 C   0  0  0  0  0  0  0  0  0  0  0  0
   10.1560    5.0240    1.3840 O   0  0  0  0  0  0  0  0  0  0  0  0
    9.7550    7.2770    1.9550 C   0  0  0  0  0  0  0  0  0  0  0  0
    9.5290    8.4980    1.4540 C   0  0  0  0  0  0  0  0  0  0  0  0
    9.4590    8.7760    0.0940 O   0  0  0  0  0  0  0  0  0  0  0  0
    9.3240    9.6900    2.3880 C   0  0  0  0  0  0  0  0  0  0  0  0
    8.3070    9.6150    3.1360 O   0  0  0  0  0  1  0  0  0  0  0  0
   10.2360   10.5670    2.3410 O   0  0  0  0  0  0  0  0  0  0  0  0
    9.5170    8.1120   -2.2600 C   0  0  0  0  0  0  0  0  0  0  0  0
    8.6690    7.6750   -3.0250 O   0  0  0  0  0  0  0  0  0  0  0  0
   10.5010    8.9870   -2.6140 O   0  0  0  0  0  0  0  0  0  0  0  0
    9.5540   11.1520   -3.1540 C   0  0  0  0  0  1  0  0  0  0  0  0
   10.1790    9.8780   -3.6920 C   0  0  0  0  0  2  0  0  0  0  0  0
    9.8290    6.9750    3.2990 O   0  0  0  0  0  0  0  0  0  0  0  0
   10.0060    6.0150    3.3350 H   0  0  0  0  0  0  0  0  0  0  0  0
  1  2  2  0  0  0  0
  1  7  1  0  0  0  0
  2  3  1  0  0  0  0
  3  4  2  0  0  0  0
  3  5  1  0  0  0  0
  5 16  1  0  0  0  0
  6  5  2  0  0  0  0
  6  8  1  0  0  0  0
  7  6  1  0  0  0  0
  8  9  1  0  0  0  0
 10  8  2  0  0  0  0
 11  1  1  0  0  0  0
 12 11  2  0  0  0  0
 13 11  1  0  0  0  0
 15 14  1  0  0  0  0
 15 13  1  0  0  0  0
 16 17  1  0  0  0  0
M  END
>  <minimizedAffinity>
-4.56059027

$$$$
