
 OpenBabel09092210413D

 45 50  0  0  0  0  0  0  0  0999 V2000
   12.7660    8.0170    9.7460 C   0  0  0  0  0  0  0  0  0  0  0  0
   13.0540    8.2660    8.4090 C   0  0  0  0  0  3  0  0  0  0  0  0
   12.8200    7.2790    7.4500 C   0  0  0  0  0  3  0  0  0  0  0  0
   12.2800    6.0330    7.8050 C   0  0  0  0  0  0  0  0  0  0  0  0
   12.0090    5.7540    9.1740 C   0  0  0  0  0  0  0  0  0  0  0  0
   12.2550    6.7680   10.1180 C   0  0  0  0  0  3  0  0  0  0  0  0
   11.4570    4.4390    9.6470 C   0  0  0  0  0  0  0  0  0  0  0  0
   10.3730    4.5040   10.6950 C   0  0  0  0  0  1  0  0  0  0  0  0
   11.9120    3.2870    9.1010 C   0  0  0  0  0  0  0  0  0  0  0  0
   13.0360    3.2190    8.1030 C   0  0  0  0  0  2  0  0  0  0  0  0
   12.5340    3.7510    6.8410 N   0  0  0  0  0  0  0  0  0  0  0  0
   12.0550    5.0420    6.7310 C   0  0  0  0  0  0  0  0  0  0  0  0
   11.2720    5.0930    5.5740 C   0  0  0  0  0  0  0  0  0  0  0  0
   11.3250    3.7800    4.9720 C   0  0  0  0  0  0  0  0  0  0  0  0
   10.6940    3.1640    3.8640 C   0  0  0  0  0  3  0  0  0  0  0  0
   10.9230    1.8090    3.5760 C   0  0  0  0  0  3  0  0  0  0  0  0
   11.7950    1.0670    4.3680 C   0  0  0  0  0  0  0  0  0  0  0  0
   12.4480    1.6480    5.4570 C   0  0  0  0  0  3  0  0  0  0  0  0
   12.1700    2.9910    5.7550 C   0  0  0  0  0  0  0  0  0  0  0  0
   11.9800   -0.3910    4.1890 C   0  0  0  0  0  0  0  0  0  0  0  0
   13.0910   -0.8890    4.2510 O   0  0  0  0  0  0  0  0  0  0  0  0
   10.7770   -1.0880    4.0560 N   0  0  0  0  0  0  0  0  0  0  0  0
   10.5760   -2.7150    4.2480 S   0  0  0  0  0  0  0  0  0  0  0  0
    9.1730   -2.9290    3.9710 O   0  0  0  0  0  0  0  0  0  0  0  0
   11.6040   -3.4510    3.5610 O   0  0  0  0  0  0  0  0  0  0  0  0
   10.7980   -2.8200    5.9250 N   0  0  0  0  0  0  0  0  0  0  0  0
   12.1490   -3.2370    6.3640 C   0  0  0  0  0  1  0  0  0  0  0  0
    9.7160   -3.4960    6.6980 C   0  0  0  0  0  2  0  0  0  0  0  0
    8.5600   -2.5360    7.0060 C   0  0  0  0  0  2  0  0  0  0  0  0
    8.7820   -1.7410    8.1780 O   0  0  0  0  0  0  0  0  0  0  0  0
    9.6680   -0.6370    7.9780 C   0  0  0  0  0  2  0  0  0  0  0  0
    9.4740    0.3550    9.1330 C   0  0  0  0  0  2  0  0  0  0  0  0
   10.0560    1.6760    8.8760 N   0  0  0  0  0  0  0  0  0  0  0  0
    9.2520    2.5720    8.0470 C   0  0  0  0  0  1  0  0  0  0  0  0
   11.3200    1.9510    9.3820 C   0  0  0  0  0  0  0  0  0  0  0  0
   12.0040    1.1240    9.9820 O   0  0  0  0  0  0  0  0  0  0  0  0
    9.8970   -0.6010    4.1760 H   0  0  0  0  0  0  0  0  0  0  0  0
   10.4250    6.2790    5.1550 C   0  0  0  0  0  3  0  0  0  0  0  0
   10.8520    6.9450    3.8400 C   0  0  0  0  0  2  0  0  0  0  0  0
    9.9880    8.1690    3.5330 C   0  0  0  0  0  2  0  0  0  0  0  0
    8.4990    7.8260    3.5350 C   0  0  0  0  0  2  0  0  0  0  0  0
    8.0730    7.1480    4.8340 C   0  0  0  0  0  2  0  0  0  0  0  0
    8.9300    5.9210    5.1370 C   0  0  0  0  0  2  0  0  0  0  0  0
   12.2490   10.1300   10.7060 C   0  0  0  0  0  1  0  0  0  0  0  0
   12.9430    8.8920   10.7820 O   0  0  0  0  0  0  0  0  0  0  0  0
  1  6  1  0  0  0  0
  1 45  1  0  0  0  0
  2  1  2  0  0  0  0
  3  4  2  0  0  0  0
  3  2  1  0  0  0  0
  4  5  1  0  0  0  0
  5  7  1  0  0  0  0
  5  6  2  0  0  0  0
  7  8  1  0  0  0  0
  9 35  1  0  0  0  0
  9  7  2  0  0  0  0
 10  9  1  0  0  0  0
 11 10  1  0  0  0  0
 12 11  1  0  0  0  0
 12  4  1  0  0  0  0
 13 12  2  0  0  0  0
 14 13  1  0  0  0  0
 14 19  1  0  0  0  0
 15 14  2  0  0  0  0
 16 15  1  0  0  0  0
 16 17  2  0  0  0  0
 17 18  1  0  0  0  0
 18 19  2  0  0  0  0
 19 11  1  0  0  0  0
 20 21  2  0  0  0  0
 20 17  1  0  0  0  0
 22 37  1  0  0  0  0
 22 20  1  0  0  0  0
 22 23  1  0  0  0  0
 23 26  1  0  0  0  0
 24 23  2  0  0  0  0
 25 23  2  0  0  0  0
 26 27  1  0  0  0  0
 26 28  1  0  0  0  0
 28 29  1  0  0  0  0
 29 30  1  0  0  0  0
 31 30  1  0  0  0  0
 31 32  1  0  0  0  0
 33 32  1  0  0  0  0
 33 35  1  0  0  0  0
 34 33  1  0  0  0  0
 35 36  2  0  0  0  0
 38 13  1  0  0  0  0
 39 38  1  0  0  0  0
 40 41  1  0  0  0  0
 40 39  1  0  0  0  0
 41 42  1  0  0  0  0
 42 43  1  0  0  0  0
 43 38  1  0  0  0  0
 44 45  1  0  0  0  0
M  END
>  <minimizedAffinity>
-5.13589907

$$$$
