
 OpenBabel09092210413D

 45 50  0  0  0  0  0  0  0  0999 V2000
    6.3680   -1.6750    2.2040 C   0  0  0  0  0  0  0  0  0  0  0  0
    7.6750   -1.7250    1.7310 C   0  0  0  0  0  3  0  0  0  0  0  0
    8.6690   -0.9670    2.3520 C   0  0  0  0  0  3  0  0  0  0  0  0
    8.3820   -0.1590    3.4630 C   0  0  0  0  0  0  0  0  0  0  0  0
    7.0430   -0.0750    3.9380 C   0  0  0  0  0  0  0  0  0  0  0  0
    6.0620   -0.8500    3.2920 C   0  0  0  0  0  3  0  0  0  0  0  0
    6.6410    0.7850    5.1020 C   0  0  0  0  0  0  0  0  0  0  0  0
    5.6740    0.1730    6.0860 C   0  0  0  0  0  1  0  0  0  0  0  0
    7.1770    2.0210    5.2390 C   0  0  0  0  0  0  0  0  0  0  0  0
    8.0900    2.6540    4.2250 C   0  0  0  0  0  2  0  0  0  0  0  0
    9.3740    1.9660    4.3020 N   0  0  0  0  0  0  0  0  0  0  0  0
    9.4910    0.6090    4.0690 C   0  0  0  0  0  0  0  0  0  0  0  0
   10.7010    0.1970    4.6350 C   0  0  0  0  0  0  0  0  0  0  0  0
   11.3260    1.3740    5.1940 C   0  0  0  0  0  0  0  0  0  0  0  0
   12.4910    1.6160    5.9630 C   0  0  0  0  0  3  0  0  0  0  0  0
   12.7900    2.9110    6.4150 C   0  0  0  0  0  3  0  0  0  0  0  0
   11.9530    3.9740    6.0870 C   0  0  0  0  0  0  0  0  0  0  0  0
   10.8060    3.7740    5.3150 C   0  0  0  0  0  3  0  0  0  0  0  0
   10.5000    2.4640    4.9120 C   0  0  0  0  0  0  0  0  0  0  0  0
   12.1500    5.3350    6.6350 C   0  0  0  0  0  0  0  0  0  0  0  0
   12.0170    6.3170    5.9260 O   0  0  0  0  0  0  0  0  0  0  0  0
   12.3850    5.3460    8.0120 N   0  0  0  0  0  0  0  0  0  0  0  0
   12.2440    6.6550    9.0060 S   0  0  0  0  0  0  0  0  0  0  0  0
   12.6290    6.1510   10.3070 O   0  0  0  0  0  0  0  0  0  0  0  0
   12.8700    7.8160    8.4310 O   0  0  0  0  0  0  0  0  0  0  0  0
   10.5590    6.8270    8.9920 N   0  0  0  0  0  0  0  0  0  0  0  0
   10.0300    7.8510    8.0620 C   0  0  0  0  0  1  0  0  0  0  0  0
    9.8820    6.8640   10.3200 C   0  0  0  0  0  2  0  0  0  0  0  0
    9.6390    5.4520   10.8680 C   0  0  0  0  0  2  0  0  0  0  0  0
    8.4360    4.8520   10.3700 O   0  0  0  0  0  0  0  0  0  0  0  0
    8.5470    4.3360    9.0410 C   0  0  0  0  0  2  0  0  0  0  0  0
    7.3880    3.3570    8.8040 C   0  0  0  0  0  2  0  0  0  0  0  0
    7.5730    2.5030    7.6260 N   0  0  0  0  0  0  0  0  0  0  0  0
    8.4390    1.3410    7.8160 C   0  0  0  0  0  1  0  0  0  0  0  0
    6.9700    2.8820    6.4340 C   0  0  0  0  0  0  0  0  0  0  0  0
    6.3390    3.9290    6.2960 O   0  0  0  0  0  0  0  0  0  0  0  0
   12.3200    4.4850    8.5410 H   0  0  0  0  0  0  0  0  0  0  0  0
   11.1550   -1.2450    4.7490 C   0  0  0  0  0  3  0  0  0  0  0  0
   12.6100   -1.4990    4.3300 C   0  0  0  0  0  2  0  0  0  0  0  0
   12.9580   -2.9860    4.4120 C   0  0  0  0  0  2  0  0  0  0  0  0
   12.6590   -3.5620    5.7950 C   0  0  0  0  0  2  0  0  0  0  0  0
   11.2180   -3.2970    6.2220 C   0  0  0  0  0  2  0  0  0  0  0  0
   10.8730   -1.8120    6.1490 C   0  0  0  0  0  2  0  0  0  0  0  0
    5.5660   -3.2530    0.6160 C   0  0  0  0  0  1  0  0  0  0  0  0
    5.3020   -2.3650    1.6950 O   0  0  0  0  0  0  0  0  0  0  0  0
  1  6  1  0  0  0  0
  2  1  2  0  0  0  0
  2  3  1  0  0  0  0
  3  4  2  0  0  0  0
  4  5  1  0  0  0  0
  4 12  1  0  0  0  0
  5  7  1  0  0  0  0
  6  5  2  0  0  0  0
  7  9  2  0  0  0  0
  7  8  1  0  0  0  0
  9 35  1  0  0  0  0
 10 11  1  0  0  0  0
 10  9  1  0  0  0  0
 11 19  1  0  0  0  0
 12 11  1  0  0  0  0
 12 13  2  0  0  0  0
 13 38  1  0  0  0  0
 13 14  1  0  0  0  0
 14 15  1  0  0  0  0
 15 16  2  0  0  0  0
 17 16  1  0  0  0  0
 17 20  1  0  0  0  0
 18 17  2  0  0  0  0
 19 14  2  0  0  0  0
 19 18  1  0  0  0  0
 20 22  1  0  0  0  0
 21 20  2  0  0  0  0
 22 37  1  0  0  0  0
 22 23  1  0  0  0  0
 23 24  2  0  0  0  0
 25 23  2  0  0  0  0
 26 23  1  0  0  0  0
 26 28  1  0  0  0  0
 27 26  1  0  0  0  0
 28 29  1  0  0  0  0
 30 29  1  0  0  0  0
 31 30  1  0  0  0  0
 32 31  1  0  0  0  0
 33 34  1  0  0  0  0
 33 32  1  0  0  0  0
 35 33  1  0  0  0  0
 36 35  2  0  0  0  0
 38 43  1  0  0  0  0
 39 40  1  0  0  0  0
 39 38  1  0  0  0  0
 40 41  1  0  0  0  0
 41 42  1  0  0  0  0
 43 42  1  0  0  0  0
 44 45  1  0  0  0  0
 45  1  1  0  0  0  0
M  END
>  <minimizedAffinity>
-4.54583883

$$$$
