
 OpenBabel09092210413D

 45 50  0  0  0  0  0  0  0  0999 V2000
   11.5720    1.2100    5.2920 C   0  0  0  0  0  0  0  0  0  0  0  0
   11.9860    2.0290    4.2480 C   0  0  0  0  0  3  0  0  0  0  0  0
   11.2310    3.1490    3.8990 C   0  0  0  0  0  3  0  0  0  0  0  0
   10.0570    3.4810    4.5950 C   0  0  0  0  0  0  0  0  0  0  0  0
    9.6050    2.6350    5.6460 C   0  0  0  0  0  0  0  0  0  0  0  0
   10.3880    1.5130    5.9750 C   0  0  0  0  0  3  0  0  0  0  0  0
    8.3480    2.8980    6.4250 C   0  0  0  0  0  0  0  0  0  0  0  0
    8.4260    2.6880    7.9170 C   0  0  0  0  0  1  0  0  0  0  0  0
    7.2410    3.3380    5.7800 C   0  0  0  0  0  0  0  0  0  0  0  0
    7.1450    3.4850    4.2860 C   0  0  0  0  0  2  0  0  0  0  0  0
    7.9590    4.6340    3.9060 N   0  0  0  0  0  0  0  0  0  0  0  0
    9.3150    4.6880    4.1690 C   0  0  0  0  0  0  0  0  0  0  0  0
    9.6950    6.0300    4.0960 C   0  0  0  0  0  0  0  0  0  0  0  0
    8.5130    6.7840    3.7460 C   0  0  0  0  0  0  0  0  0  0  0  0
    8.2120    8.1610    3.6070 C   0  0  0  0  0  3  0  0  0  0  0  0
    6.9060    8.5780    3.3080 C   0  0  0  0  0  3  0  0  0  0  0  0
    5.9000    7.6340    3.1180 C   0  0  0  0  0  0  0  0  0  0  0  0
    6.1660    6.2680    3.2280 C   0  0  0  0  0  3  0  0  0  0  0  0
    7.4690    5.8740    3.5740 C   0  0  0  0  0  0  0  0  0  0  0  0
    4.4830    8.0160    2.9230 C   0  0  0  0  0  0  0  0  0  0  0  0
    3.7930    7.4470    2.0950 O   0  0  0  0  0  0  0  0  0  0  0  0
    4.0410    8.9800    3.8320 N   0  0  0  0  0  0  0  0  0  0  0  0
    2.4660    9.3350    4.1750 S   0  0  0  0  0  0  0  0  0  0  0  0
    2.5510   10.4130    5.1360 O   0  0  0  0  0  0  0  0  0  0  0  0
    1.6850    9.4560    2.9710 O   0  0  0  0  0  0  0  0  0  0  0  0
    2.0440    7.9230    5.0100 N   0  0  0  0  0  0  0  0  0  0  0  0
    1.3280    6.9000    4.2140 C   0  0  0  0  0  1  0  0  0  0  0  0
    1.4500    8.1040    6.3660 C   0  0  0  0  0  2  0  0  0  0  0  0
    2.5330    8.3000    7.4340 C   0  0  0  0  0  2  0  0  0  0  0  0
    3.0690    7.0660    7.9290 O   0  0  0  0  0  0  0  0  0  0  0  0
    4.0170    6.4480    7.0570 C   0  0  0  0  0  2  0  0  0  0  0  0
    4.8210    5.4200    7.8660 C   0  0  0  0  0  2  0  0  0  0  0  0
    6.0430    4.9690    7.1920 N   0  0  0  0  0  0  0  0  0  0  0  0
    7.1930    5.8660    7.2980 C   0  0  0  0  0  1  0  0  0  0  0  0
    6.0030    3.7800    6.4770 C   0  0  0  0  0  0  0  0  0  0  0  0
    4.9800    3.1140    6.3250 O   0  0  0  0  0  0  0  0  0  0  0  0
    4.6480    9.2770    4.5860 H   0  0  0  0  0  0  0  0  0  0  0  0
   11.0650    6.5620    4.4710 C   0  0  0  0  0  3  0  0  0  0  0  0
   11.3000    8.0400    4.1290 C   0  0  0  0  0  2  0  0  0  0  0  0
   12.7260    8.4690    4.4790 C   0  0  0  0  0  2  0  0  0  0  0  0
   13.0670    8.1650    5.9360 C   0  0  0  0  0  2  0  0  0  0  0  0
   12.8190    6.7000    6.2850 C   0  0  0  0  0  2  0  0  0  0  0  0
   11.3940    6.2740    5.9450 C   0  0  0  0  0  2  0  0  0  0  0  0
   12.6980   -0.8130    4.7510 C   0  0  0  0  0  1  0  0  0  0  0  0
   12.2160    0.0890    5.7390 O   0  0  0  0  0  0  0  0  0  0  0  0
  1 45  1  0  0  0  0
  1  6  1  0  0  0  0
  2  1  2  0  0  0  0
  3  2  1  0  0  0  0
  3  4  2  0  0  0  0
  4  5  1  0  0  0  0
  5  6  2  0  0  0  0
  5  7  1  0  0  0  0
  7  8  1  0  0  0  0
  9  7  2  0  0  0  0
  9 35  1  0  0  0  0
 10  9  1  0  0  0  0
 11 12  1  0  0  0  0
 11 10  1  0  0  0  0
 12  4  1  0  0  0  0
 13 12  2  0  0  0  0
 13 38  1  0  0  0  0
 14 13  1  0  0  0  0
 15 14  1  0  0  0  0
 16 15  2  0  0  0  0
 17 18  2  0  0  0  0
 17 16  1  0  0  0  0
 18 19  1  0  0  0  0
 19 14  2  0  0  0  0
 19 11  1  0  0  0  0
 20 17  1  0  0  0  0
 20 22  1  0  0  0  0
 21 20  2  0  0  0  0
 22 23  1  0  0  0  0
 22 37  1  0  0  0  0
 23 26  1  0  0  0  0
 23 24  2  0  0  0  0
 25 23  2  0  0  0  0
 26 28  1  0  0  0  0
 27 26  1  0  0  0  0
 28 29  1  0  0  0  0
 29 30  1  0  0  0  0
 31 32  1  0  0  0  0
 31 30  1  0  0  0  0
 33 34  1  0  0  0  0
 33 32  1  0  0  0  0
 35 33  1  0  0  0  0
 36 35  2  0  0  0  0
 38 43  1  0  0  0  0
 39 38  1  0  0  0  0
 39 40  1  0  0  0  0
 40 41  1  0  0  0  0
 41 42  1  0  0  0  0
 43 42  1  0  0  0  0
 44 45  1  0  0  0  0
M  END
>  <minimizedAffinity>
-4.58126783

$$$$
