
 OpenBabel09092210413D

 45 50  0  0  0  0  0  0  0  0999 V2000
   12.1930    0.1110    4.2120 C   0  0  0  0  0  0  0  0  0  0  0  0
   12.2020    1.1400    3.2770 C   0  0  0  0  0  3  0  0  0  0  0  0
   11.2120    2.1230    3.3130 C   0  0  0  0  0  3  0  0  0  0  0  0
   10.2040    2.1050    4.2900 C   0  0  0  0  0  0  0  0  0  0  0  0
   10.1640    1.0400    5.2340 C   0  0  0  0  0  0  0  0  0  0  0  0
   11.1770    0.0640    5.1720 C   0  0  0  0  0  3  0  0  0  0  0  0
    9.1080    0.9260    6.2950 C   0  0  0  0  0  0  0  0  0  0  0  0
    9.5790    0.5210    7.6700 C   0  0  0  0  0  1  0  0  0  0  0  0
    7.8210    1.2220    5.9930 C   0  0  0  0  0  0  0  0  0  0  0  0
    7.3430    1.5640    4.6090 C   0  0  0  0  0  2  0  0  0  0  0  0
    7.8420    2.8960    4.2890 N   0  0  0  0  0  0  0  0  0  0  0  0
    9.1930    3.1850    4.2660 C   0  0  0  0  0  0  0  0  0  0  0  0
    9.3200    4.5720    4.3700 C   0  0  0  0  0  0  0  0  0  0  0  0
    7.9810    5.1140    4.4250 C   0  0  0  0  0  0  0  0  0  0  0  0
    7.4340    6.4060    4.6160 C   0  0  0  0  0  3  0  0  0  0  0  0
    6.0440    6.5890    4.6820 C   0  0  0  0  0  3  0  0  0  0  0  0
    5.1910    5.4990    4.5340 C   0  0  0  0  0  0  0  0  0  0  0  0
    5.6960    4.2140    4.3260 C   0  0  0  0  0  3  0  0  0  0  0  0
    7.0900    4.0460    4.3080 C   0  0  0  0  0  0  0  0  0  0  0  0
    3.7260    5.6100    4.7170 C   0  0  0  0  0  0  0  0  0  0  0  0
    2.9590    5.0400    3.9610 O   0  0  0  0  0  0  0  0  0  0  0  0
    3.3650    6.3210    5.8650 N   0  0  0  0  0  0  0  0  0  0  0  0
    1.8840    6.2960    6.5920 S   0  0  0  0  0  0  0  0  0  0  0  0
    2.0220    7.2160    7.7000 O   0  0  0  0  0  0  0  0  0  0  0  0
    0.8270    6.4310    5.6250 O   0  0  0  0  0  0  0  0  0  0  0  0
    1.9150    4.7210    7.2150 N   0  0  0  0  0  0  0  0  0  0  0  0
    1.2050    3.7020    6.4090 C   0  0  0  0  0  1  0  0  0  0  0  0
    1.6450    4.5770    8.6750 C   0  0  0  0  0  2  0  0  0  0  0  0
    2.9080    4.8310    9.5090 C   0  0  0  0  0  2  0  0  0  0  0  0
    3.7420    3.6720    9.6380 O   0  0  0  0  0  0  0  0  0  0  0  0
    4.5390    3.3930    8.4840 C   0  0  0  0  0  2  0  0  0  0  0  0
    5.6720    2.4430    8.8970 C   0  0  0  0  0  2  0  0  0  0  0  0
    6.7510    2.3520    7.9080 N   0  0  0  0  0  0  0  0  0  0  0  0
    7.7290    3.4380    7.9370 C   0  0  0  0  0  1  0  0  0  0  0  0
    6.7330    1.2970    7.0060 C   0  0  0  0  0  0  0  0  0  0  0  0
    5.8280    0.4670    6.9500 O   0  0  0  0  0  0  0  0  0  0  0  0
    4.0800    6.6220    6.5160 H   0  0  0  0  0  0  0  0  0  0  0  0
   10.6340    5.3100    4.5410 C   0  0  0  0  0  3  0  0  0  0  0  0
   10.5980    6.7940    4.1470 C   0  0  0  0  0  2  0  0  0  0  0  0
   11.9780    7.4370    4.2860 C   0  0  0  0  0  2  0  0  0  0  0  0
   12.5560    7.2380    5.6870 C   0  0  0  0  0  2  0  0  0  0  0  0
   12.5780    5.7660    6.0900 C   0  0  0  0  0  2  0  0  0  0  0  0
   11.1980    5.1260    5.9590 C   0  0  0  0  0  2  0  0  0  0  0  0
   12.5960   -2.1950    4.6310 C   0  0  0  0  0  1  0  0  0  0  0  0
   13.1000   -0.9100    4.2920 O   0  0  0  0  0  0  0  0  0  0  0  0
  1 45  1  0  0  0  0
  1  6  1  0  0  0  0
  2  3  1  0  0  0  0
  2  1  2  0  0  0  0
  3  4  2  0  0  0  0
  4  5  1  0  0  0  0
  5  7  1  0  0  0  0
  6  5  2  0  0  0  0
  7  8  1  0  0  0  0
  9  7  2  0  0  0  0
  9 35  1  0  0  0  0
 10  9  1  0  0  0  0
 11 19  1  0  0  0  0
 11 10  1  0  0  0  0
 12 11  1  0  0  0  0
 12  4  1  0  0  0  0
 12 13  2  0  0  0  0
 13 14  1  0  0  0  0
 13 38  1  0  0  0  0
 14 15  1  0  0  0  0
 15 16  2  0  0  0  0
 17 16  1  0  0  0  0
 17 20  1  0  0  0  0
 18 17  2  0  0  0  0
 19 18  1  0  0  0  0
 19 14  2  0  0  0  0
 20 22  1  0  0  0  0
 21 20  2  0  0  0  0
 22 37  1  0  0  0  0
 22 23  1  0  0  0  0
 23 26  1  0  0  0  0
 23 24  2  0  0  0  0
 25 23  2  0  0  0  0
 26 28  1  0  0  0  0
 27 26  1  0  0  0  0
 28 29  1  0  0  0  0
 29 30  1  0  0  0  0
 31 32  1  0  0  0  0
 31 30  1  0  0  0  0
 33 34  1  0  0  0  0
 33 32  1  0  0  0  0
 35 33  1  0  0  0  0
 36 35  2  0  0  0  0
 38 43  1  0  0  0  0
 39 40  1  0  0  0  0
 39 38  1  0  0  0  0
 40 41  1  0  0  0  0
 41 42  1  0  0  0  0
 43 42  1  0  0  0  0
 45 44  1  0  0  0  0
M  END
>  <minimizedAffinity>
-4.93028498

$$$$
