
 OpenBabel09092210413D

 45 50  0  0  0  0  0  0  0  0999 V2000
    8.3890    8.8110    9.0840 C   0  0  0  0  0  0  0  0  0  0  0  0
    9.7250    8.7670    8.7020 C   0  0  0  0  0  3  0  0  0  0  0  0
   10.1930    7.7030    7.9280 C   0  0  0  0  0  3  0  0  0  0  0  0
    9.3340    6.6750    7.5090 C   0  0  0  0  0  0  0  0  0  0  0  0
    7.9720    6.6920    7.9190 C   0  0  0  0  0  0  0  0  0  0  0  0
    7.5290    7.7760    8.6990 C   0  0  0  0  0  3  0  0  0  0  0  0
    6.9900    5.6190    7.5410 C   0  0  0  0  0  0  0  0  0  0  0  0
    5.6160    6.0830    7.1250 C   0  0  0  0  0  1  0  0  0  0  0  0
    7.3800    4.3220    7.5500 C   0  0  0  0  0  0  0  0  0  0  0  0
    8.7290    3.8560    8.0250 C   0  0  0  0  0  2  0  0  0  0  0  0
    9.7090    4.2600    7.0240 N   0  0  0  0  0  0  0  0  0  0  0  0
    9.9050    5.5860    6.6860 C   0  0  0  0  0  0  0  0  0  0  0  0
   10.5480    5.6040    5.4460 C   0  0  0  0  0  0  0  0  0  0  0  0
   10.7620    4.2260    5.0630 C   0  0  0  0  0  0  0  0  0  0  0  0
   11.2690    3.5780    3.9110 C   0  0  0  0  0  3  0  0  0  0  0  0
   11.2840    2.1770    3.8300 C   0  0  0  0  0  3  0  0  0  0  0  0
   10.8220    1.4130    4.8990 C   0  0  0  0  0  0  0  0  0  0  0  0
   10.3330    2.0200    6.0580 C   0  0  0  0  0  3  0  0  0  0  0  0
   10.2840    3.4220    6.1000 C   0  0  0  0  0  0  0  0  0  0  0  0
   10.6990   -0.0600    4.8230 C   0  0  0  0  0  0  0  0  0  0  0  0
   11.0290   -0.7610    5.7640 O   0  0  0  0  0  0  0  0  0  0  0  0
   10.0900   -0.5040    3.6470 N   0  0  0  0  0  0  0  0  0  0  0  0
    9.4320   -1.9980    3.4030 S   0  0  0  0  0  0  0  0  0  0  0  0
    8.9760   -1.9590    2.0310 O   0  0  0  0  0  0  0  0  0  0  0  0
   10.3070   -3.0360    3.8790 O   0  0  0  0  0  0  0  0  0  0  0  0
    8.0750   -1.8640    4.4080 N   0  0  0  0  0  0  0  0  0  0  0  0
    8.2120   -2.4730    5.7500 C   0  0  0  0  0  1  0  0  0  0  0  0
    6.7520   -2.1600    3.7840 C   0  0  0  0  0  2  0  0  0  0  0  0
    6.1990   -0.9420    3.0320 C   0  0  0  0  0  2  0  0  0  0  0  0
    5.4950   -0.0260    3.8800 O   0  0  0  0  0  0  0  0  0  0  0  0
    6.3440    0.8200    4.6600 C   0  0  0  0  0  2  0  0  0  0  0  0
    5.5140    2.0100    5.1600 C   0  0  0  0  0  2  0  0  0  0  0  0
    6.3260    3.1190    5.6710 N   0  0  0  0  0  0  0  0  0  0  0  0
    6.8890    4.0110    4.6590 C   0  0  0  0  0  1  0  0  0  0  0  0
    6.5390    3.2060    7.0400 C   0  0  0  0  0  0  0  0  0  0  0  0
    6.1340    2.3670    7.8440 O   0  0  0  0  0  0  0  0  0  0  0  0
    9.7070    0.1680    2.9940 H   0  0  0  0  0  0  0  0  0  0  0  0
   10.8130    6.8520    4.6280 C   0  0  0  0  0  3  0  0  0  0  0  0
    9.5940    7.7630    4.4250 C   0  0  0  0  0  2  0  0  0  0  0  0
    9.9380    8.9570    3.5340 C   0  0  0  0  0  2  0  0  0  0  0  0
   11.1410    9.7340    4.0670 C   0  0  0  0  0  2  0  0  0  0  0  0
   12.3500    8.8300    4.2850 C   0  0  0  0  0  2  0  0  0  0  0  0
   12.0100    7.6410    5.1820 C   0  0  0  0  0  2  0  0  0  0  0  0
    6.3920    9.7080   10.0140 C   0  0  0  0  0  1  0  0  0  0  0  0
    7.8000    9.7910    9.8350 O   0  0  0  0  0  0  0  0  0  0  0  0
  1 45  1  0  0  0  0
  2  1  1  0  0  0  0
  3  2  2  0  0  0  0
  4  5  2  0  0  0  0
  4  3  1  0  0  0  0
  5  6  1  0  0  0  0
  6  1  2  0  0  0  0
  7  9  2  0  0  0  0
  7  5  1  0  0  0  0
  8  7  1  0  0  0  0
  9 10  1  0  0  0  0
 11 10  1  0  0  0  0
 12 11  1  0  0  0  0
 12  4  1  0  0  0  0
 13 12  2  0  0  0  0
 14 13  1  0  0  0  0
 14 19  1  0  0  0  0
 15 14  2  0  0  0  0
 16 15  1  0  0  0  0
 16 17  2  0  0  0  0
 17 18  1  0  0  0  0
 18 19  2  0  0  0  0
 19 11  1  0  0  0  0
 20 17  1  0  0  0  0
 20 21  2  0  0  0  0
 22 20  1  0  0  0  0
 23 22  1  0  0  0  0
 23 25  2  0  0  0  0
 23 26  1  0  0  0  0
 24 23  2  0  0  0  0
 26 27  1  0  0  0  0
 28 26  1  0  0  0  0
 29 28  1  0  0  0  0
 29 30  1  0  0  0  0
 30 31  1  0  0  0  0
 31 32  1  0  0  0  0
 32 33  1  0  0  0  0
 33 35  1  0  0  0  0
 34 33  1  0  0  0  0
 35  9  1  0  0  0  0
 35 36  2  0  0  0  0
 37 22  1  0  0  0  0
 38 43  1  0  0  0  0
 38 13  1  0  0  0  0
 39 38  1  0  0  0  0
 40 41  1  0  0  0  0
 40 39  1  0  0  0  0
 41 42  1  0  0  0  0
 42 43  1  0  0  0  0
 45 44  1  0  0  0  0
M  END
>  <minimizedAffinity>
-5.05981159

$$$$
