
 OpenBabel09092210413D

 45 50  0  0  0  0  0  0  0  0999 V2000
   12.6880    7.8490   10.0370 C   0  0  0  0  0  0  0  0  0  0  0  0
   13.0970    8.1090    8.7340 C   0  0  0  0  0  3  0  0  0  0  0  0
   12.9020    7.1500    7.7390 C   0  0  0  0  0  3  0  0  0  0  0  0
   12.2820    5.9220    8.0220 C   0  0  0  0  0  0  0  0  0  0  0  0
   11.8860    5.6310    9.3570 C   0  0  0  0  0  0  0  0  0  0  0  0
   12.0960    6.6170   10.3390 C   0  0  0  0  0  3  0  0  0  0  0  0
   11.2420    4.3340    9.7550 C   0  0  0  0  0  0  0  0  0  0  0  0
   10.0780    4.4280   10.7110 C   0  0  0  0  0  1  0  0  0  0  0  0
   11.6920    3.1720    9.2240 C   0  0  0  0  0  0  0  0  0  0  0  0
   12.8920    3.0730    8.3210 C   0  0  0  0  0  2  0  0  0  0  0  0
   12.5190    3.6480    7.0340 N   0  0  0  0  0  0  0  0  0  0  0  0
   12.1060    4.9610    6.9110 C   0  0  0  0  0  0  0  0  0  0  0  0
   11.4250    5.0660    5.6960 C   0  0  0  0  0  0  0  0  0  0  0  0
   11.4730    3.7630    5.0720 C   0  0  0  0  0  0  0  0  0  0  0  0
   10.9120    3.1950    3.9030 C   0  0  0  0  0  3  0  0  0  0  0  0
   11.1070    1.8370    3.6060 C   0  0  0  0  0  3  0  0  0  0  0  0
   11.8780    1.0430    4.4520 C   0  0  0  0  0  0  0  0  0  0  0  0
   12.4610    1.5760    5.6030 C   0  0  0  0  0  3  0  0  0  0  0  0
   12.2170    2.9250    5.9050 C   0  0  0  0  0  0  0  0  0  0  0  0
   12.0160   -0.4180    4.2570 C   0  0  0  0  0  0  0  0  0  0  0  0
   13.0950   -0.9650    4.4010 O   0  0  0  0  0  0  0  0  0  0  0  0
   10.7990   -1.0590    4.0110 N   0  0  0  0  0  0  0  0  0  0  0  0
   10.5150   -2.6790    4.1510 S   0  0  0  0  0  0  0  0  0  0  0  0
    9.1320   -2.8270    3.7540 O   0  0  0  0  0  0  0  0  0  0  0  0
   11.5640   -3.4470    3.5360 O   0  0  0  0  0  0  0  0  0  0  0  0
   10.5910   -2.8230    5.8380 N   0  0  0  0  0  0  0  0  0  0  0  0
   11.8820   -3.3060    6.3790 C   0  0  0  0  0  1  0  0  0  0  0  0
    9.4210   -3.4640    6.5050 C   0  0  0  0  0  2  0  0  0  0  0  0
    8.2850   -2.4600    6.7360 C   0  0  0  0  0  2  0  0  0  0  0  0
    8.4410   -1.6970    7.9390 O   0  0  0  0  0  0  0  0  0  0  0  0
    9.3870   -0.6290    7.8360 C   0  0  0  0  0  2  0  0  0  0  0  0
    9.1380    0.3500    8.9920 C   0  0  0  0  0  2  0  0  0  0  0  0
    9.7950    1.6490    8.8120 N   0  0  0  0  0  0  0  0  0  0  0  0
    9.1020    2.5940    7.9390 C   0  0  0  0  0  1  0  0  0  0  0  0
   11.0220    1.8590    9.4260 C   0  0  0  0  0  0  0  0  0  0  0  0
   11.6190    0.9930   10.0630 O   0  0  0  0  0  0  0  0  0  0  0  0
    9.9340   -0.5360    4.0680 H   0  0  0  0  0  0  0  0  0  0  0  0
   10.6670    6.2960    5.2330 C   0  0  0  0  0  3  0  0  0  0  0  0
   11.1610    6.8990    3.9100 C   0  0  0  0  0  2  0  0  0  0  0  0
   10.3860    8.1700    3.5590 C   0  0  0  0  0  2  0  0  0  0  0  0
    8.8780    7.9270    3.5420 C   0  0  0  0  0  2  0  0  0  0  0  0
    8.3850    7.3110    4.8480 C   0  0  0  0  0  2  0  0  0  0  0  0
    9.1530    6.0380    5.1950 C   0  0  0  0  0  2  0  0  0  0  0  0
   12.6310   10.0830   10.8490 C   0  0  0  0  0  1  0  0  0  0  0  0
   12.8140    8.6970   11.1030 O   0  0  0  0  0  0  0  0  0  0  0  0
  1  6  1  0  0  0  0
  1 45  1  0  0  0  0
  2  1  2  0  0  0  0
  3  4  2  0  0  0  0
  3  2  1  0  0  0  0
  4  5  1  0  0  0  0
  5  7  1  0  0  0  0
  5  6  2  0  0  0  0
  7  8  1  0  0  0  0
  9 35  1  0  0  0  0
  9  7  2  0  0  0  0
 10  9  1  0  0  0  0
 11 10  1  0  0  0  0
 12 11  1  0  0  0  0
 12  4  1  0  0  0  0
 13 12  2  0  0  0  0
 14 13  1  0  0  0  0
 14 19  1  0  0  0  0
 15 14  2  0  0  0  0
 16 15  1  0  0  0  0
 16 17  2  0  0  0  0
 17 18  1  0  0  0  0
 18 19  2  0  0  0  0
 19 11  1  0  0  0  0
 20 21  2  0  0  0  0
 20 17  1  0  0  0  0
 22 37  1  0  0  0  0
 22 23  1  0  0  0  0
 22 20  1  0  0  0  0
 23 26  1  0  0  0  0
 24 23  2  0  0  0  0
 25 23  2  0  0  0  0
 26 27  1  0  0  0  0
 26 28  1  0  0  0  0
 28 29  1  0  0  0  0
 29 30  1  0  0  0  0
 31 30  1  0  0  0  0
 31 32  1  0  0  0  0
 33 32  1  0  0  0  0
 33 35  1  0  0  0  0
 34 33  1  0  0  0  0
 35 36  2  0  0  0  0
 38 13  1  0  0  0  0
 39 38  1  0  0  0  0
 40 39  1  0  0  0  0
 41 40  1  0  0  0  0
 41 42  1  0  0  0  0
 42 43  1  0  0  0  0
 43 38  1  0  0  0  0
 44 45  1  0  0  0  0
M  END
>  <minimizedAffinity>
-5.08949327

$$$$
