
 OpenBabel09092210413D

 45 50  0  0  0  0  0  0  0  0999 V2000
    9.7180    8.8690    4.4050 C   0  0  0  0  0  0  0  0  0  0  0  0
    8.6320    8.4370    3.6520 C   0  0  0  0  0  3  0  0  0  0  0  0
    8.2860    7.0850    3.6420 C   0  0  0  0  0  3  0  0  0  0  0  0
    9.0070    6.1430    4.3940 C   0  0  0  0  0  0  0  0  0  0  0  0
   10.1390    6.5670    5.1440 C   0  0  0  0  0  0  0  0  0  0  0  0
   10.4640    7.9360    5.1350 C   0  0  0  0  0  3  0  0  0  0  0  0
   10.9830    5.6250    5.9540 C   0  0  0  0  0  0  0  0  0  0  0  0
   11.4090    6.1090    7.3180 C   0  0  0  0  0  1  0  0  0  0  0  0
   11.2850    4.4020    5.4580 C   0  0  0  0  0  0  0  0  0  0  0  0
   10.9150    3.9450    4.0730 C   0  0  0  0  0  2  0  0  0  0  0  0
    9.4740    3.7200    4.0570 N   0  0  0  0  0  0  0  0  0  0  0  0
    8.5740    4.7300    4.3360 C   0  0  0  0  0  0  0  0  0  0  0  0
    7.3610    4.1200    4.6670 C   0  0  0  0  0  0  0  0  0  0  0  0
    7.5590    2.6930    4.5430 C   0  0  0  0  0  0  0  0  0  0  0  0
    6.7720    1.5480    4.8140 C   0  0  0  0  0  3  0  0  0  0  0  0
    7.3020    0.2610    4.6390 C   0  0  0  0  0  3  0  0  0  0  0  0
    8.6040    0.1020    4.1700 C   0  0  0  0  0  0  0  0  0  0  0  0
    9.4010    1.2090    3.8740 C   0  0  0  0  0  3  0  0  0  0  0  0
    8.8680    2.4880    4.1000 C   0  0  0  0  0  0  0  0  0  0  0  0
    9.2560   -1.2240    4.0820 C   0  0  0  0  0  0  0  0  0  0  0  0
    9.9390   -1.5190    3.1160 O   0  0  0  0  0  0  0  0  0  0  0  0
    9.0860   -2.0000    5.2310 N   0  0  0  0  0  0  0  0  0  0  0  0
    9.9850   -3.3200    5.6480 S   0  0  0  0  0  0  0  0  0  0  0  0
    9.3880   -3.7730    6.8860 O   0  0  0  0  0  0  0  0  0  0  0  0
   10.1630   -4.2040    4.5270 O   0  0  0  0  0  0  0  0  0  0  0  0
   11.4440   -2.5460    6.0260 N   0  0  0  0  0  0  0  0  0  0  0  0
   12.4680   -2.5590    4.9560 C   0  0  0  0  0  1  0  0  0  0  0  0
   12.0240   -2.8370    7.3690 C   0  0  0  0  0  2  0  0  0  0  0  0
   11.3880   -1.9630    8.4580 C   0  0  0  0  0  2  0  0  0  0  0  0
   11.9960   -0.6700    8.5720 O   0  0  0  0  0  0  0  0  0  0  0  0
   11.5890    0.2590    7.5640 C   0  0  0  0  0  2  0  0  0  0  0  0
   11.9400    1.6750    8.0410 C   0  0  0  0  0  2  0  0  0  0  0  0
   11.2750    2.7340    7.2760 N   0  0  0  0  0  0  0  0  0  0  0  0
    9.8900    3.0130    7.6540 C   0  0  0  0  0  1  0  0  0  0  0  0
   11.9740    3.3410    6.2420 C   0  0  0  0  0  0  0  0  0  0  0  0
   13.1000    2.9960    5.8910 O   0  0  0  0  0  0  0  0  0  0  0  0
    8.6330   -1.6030    6.0450 H   0  0  0  0  0  0  0  0  0  0  0  0
    6.1410    4.8500    5.1950 C   0  0  0  0  0  3  0  0  0  0  0  0
    4.8490    4.6050    4.4030 C   0  0  0  0  0  2  0  0  0  0  0  0
    3.6910    5.4330    4.9640 C   0  0  0  0  0  2  0  0  0  0  0  0
    3.4930    5.1890    6.4590 C   0  0  0  0  0  2  0  0  0  0  0  0
    4.7800    5.4140    7.2480 C   0  0  0  0  0  2  0  0  0  0  0  0
    5.9340    4.5820    6.6940 C   0  0  0  0  0  2  0  0  0  0  0  0
   11.5470   10.3830    4.2710 C   0  0  0  0  0  1  0  0  0  0  0  0
   10.1630   10.1590    4.5060 O   0  0  0  0  0  0  0  0  0  0  0  0
  1 45  1  0  0  0  0
  1  6  1  0  0  0  0
  2  1  2  0  0  0  0
  3  2  1  0  0  0  0
  3  4  2  0  0  0  0
  4  5  1  0  0  0  0
  5  7  1  0  0  0  0
  6  5  2  0  0  0  0
  7  8  1  0  0  0  0
  9  7  2  0  0  0  0
  9 35  1  0  0  0  0
 10  9  1  0  0  0  0
 11 10  1  0  0  0  0
 11 19  1  0  0  0  0
 11 12  1  0  0  0  0
 12  4  1  0  0  0  0
 12 13  2  0  0  0  0
 13 38  1  0  0  0  0
 14 13  1  0  0  0  0
 14 15  1  0  0  0  0
 16 15  2  0  0  0  0
 17 16  1  0  0  0  0
 18 19  1  0  0  0  0
 18 17  2  0  0  0  0
 19 14  2  0  0  0  0
 20 17  1  0  0  0  0
 20 22  1  0  0  0  0
 21 20  2  0  0  0  0
 22 23  1  0  0  0  0
 22 37  1  0  0  0  0
 23 26  1  0  0  0  0
 23 24  2  0  0  0  0
 25 23  2  0  0  0  0
 26 28  1  0  0  0  0
 27 26  1  0  0  0  0
 28 29  1  0  0  0  0
 29 30  1  0  0  0  0
 31 32  1  0  0  0  0
 31 30  1  0  0  0  0
 33 34  1  0  0  0  0
 33 32  1  0  0  0  0
 35 33  1  0  0  0  0
 36 35  2  0  0  0  0
 38 43  1  0  0  0  0
 39 40  1  0  0  0  0
 39 38  1  0  0  0  0
 40 41  1  0  0  0  0
 41 42  1  0  0  0  0
 43 42  1  0  0  0  0
 44 45  1  0  0  0  0
M  END
>  <minimizedAffinity>
-5.18287563

$$$$
