
 OpenBabel09092210413D

 45 50  0  0  0  0  0  0  0  0999 V2000
    1.5950    8.0210    7.2010 C   0  0  0  0  0  0  0  0  0  0  0  0
    2.4400    9.0110    6.7120 C   0  0  0  0  0  3  0  0  0  0  0  0
    3.6570    8.6610    6.1250 C   0  0  0  0  0  3  0  0  0  0  0  0
    4.0450    7.3180    6.0010 C   0  0  0  0  0  0  0  0  0  0  0  0
    3.2050    6.2960    6.5250 C   0  0  0  0  0  0  0  0  0  0  0  0
    1.9840    6.6800    7.1110 C   0  0  0  0  0  3  0  0  0  0  0  0
    3.5540    4.8370    6.4610 C   0  0  0  0  0  0  0  0  0  0  0  0
    2.4350    3.8940    6.0910 C   0  0  0  0  0  1  0  0  0  0  0  0
    4.8290    4.4430    6.6910 C   0  0  0  0  0  0  0  0  0  0  0  0
    5.9290    5.3750    7.1220 C   0  0  0  0  0  2  0  0  0  0  0  0
    6.2730    6.2050    5.9730 N   0  0  0  0  0  0  0  0  0  0  0  0
    5.3470    7.0280    5.3620 C   0  0  0  0  0  0  0  0  0  0  0  0
    5.8390    7.3260    4.0880 C   0  0  0  0  0  0  0  0  0  0  0  0
    7.1220    6.6710    3.9680 C   0  0  0  0  0  0  0  0  0  0  0  0
    8.0660    6.5080    2.9260 C   0  0  0  0  0  3  0  0  0  0  0  0
    9.2210    5.7350    3.1240 C   0  0  0  0  0  3  0  0  0  0  0  0
    9.4580    5.1430    4.3620 C   0  0  0  0  0  0  0  0  0  0  0  0
    8.5570    5.2980    5.4170 C   0  0  0  0  0  3  0  0  0  0  0  0
    7.3860    6.0370    5.1840 C   0  0  0  0  0  0  0  0  0  0  0  0
   10.5910    4.2190    4.5930 C   0  0  0  0  0  0  0  0  0  0  0  0
   11.2460    4.2810    5.6190 O   0  0  0  0  0  0  0  0  0  0  0  0
   10.7320    3.2560    3.5900 N   0  0  0  0  0  0  0  0  0  0  0  0
   11.5940    1.8540    3.7100 S   0  0  0  0  0  0  0  0  0  0  0  0
   11.4520    1.2430    2.4060 O   0  0  0  0  0  0  0  0  0  0  0  0
   12.8860    2.0860    4.3000 O   0  0  0  0  0  0  0  0  0  0  0  0
   10.5950    1.0140    4.7910 N   0  0  0  0  0  0  0  0  0  0  0  0
   11.0200    1.0460    6.2090 C   0  0  0  0  0  1  0  0  0  0  0  0
   10.1460   -0.3430    4.3640 C   0  0  0  0  0  2  0  0  0  0  0  0
    8.9240   -0.2670    3.4410 C   0  0  0  0  0  2  0  0  0  0  0  0
    7.6830   -0.1760    4.1520 O   0  0  0  0  0  0  0  0  0  0  0  0
    7.3970    1.1280    4.6650 C   0  0  0  0  0  2  0  0  0  0  0  0
    5.8990    1.2010    4.9940 C   0  0  0  0  0  2  0  0  0  0  0  0
    5.4090    2.5680    5.1960 N   0  0  0  0  0  0  0  0  0  0  0  0
    5.1200    3.3240    3.9780 C   0  0  0  0  0  1  0  0  0  0  0  0
    5.3090    3.0480    6.4940 C   0  0  0  0  0  0  0  0  0  0  0  0
    5.6680    2.4110    7.4830 O   0  0  0  0  0  0  0  0  0  0  0  0
   10.0380    3.1900    2.8550 H   0  0  0  0  0  0  0  0  0  0  0  0
    5.0680    8.0720    3.0170 C   0  0  0  0  0  3  0  0  0  0  0  0
    3.6640    7.5220    2.7290 C   0  0  0  0  0  2  0  0  0  0  0  0
    2.9900    8.2900    1.5920 C   0  0  0  0  0  2  0  0  0  0  0  0
    2.9630    9.7940    1.8620 C   0  0  0  0  0  2  0  0  0  0  0  0
    4.3550   10.3430    2.1650 C   0  0  0  0  0  2  0  0  0  0  0  0
    5.0240    9.5810    3.3070 C   0  0  0  0  0  2  0  0  0  0  0  0
   -0.3060    7.0710    8.2690 C   0  0  0  0  0  1  0  0  0  0  0  0
    0.3790    8.2230    7.7940 O   0  0  0  0  0  0  0  0  0  0  0  0
  1 45  1  0  0  0  0
  2  1  2  0  0  0  0
  3  2  1  0  0  0  0
  4  3  2  0  0  0  0
  4  5  1  0  0  0  0
  5  6  2  0  0  0  0
  6  1  1  0  0  0  0
  7  5  1  0  0  0  0
  7  9  2  0  0  0  0
  8  7  1  0  0  0  0
  9 10  1  0  0  0  0
 11 10  1  0  0  0  0
 12 11  1  0  0  0  0
 12  4  1  0  0  0  0
 13 12  2  0  0  0  0
 14 13  1  0  0  0  0
 14 19  1  0  0  0  0
 15 16  1  0  0  0  0
 15 14  2  0  0  0  0
 16 17  2  0  0  0  0
 17 20  1  0  0  0  0
 17 18  1  0  0  0  0
 19 18  2  0  0  0  0
 19 11  1  0  0  0  0
 20 21  2  0  0  0  0
 22 23  1  0  0  0  0
 22 20  1  0  0  0  0
 23 25  2  0  0  0  0
 23 26  1  0  0  0  0
 24 23  2  0  0  0  0
 26 27  1  0  0  0  0
 28 26  1  0  0  0  0
 29 30  1  0  0  0  0
 29 28  1  0  0  0  0
 30 31  1  0  0  0  0
 31 32  1  0  0  0  0
 32 33  1  0  0  0  0
 33 35  1  0  0  0  0
 34 33  1  0  0  0  0
 35  9  1  0  0  0  0
 35 36  2  0  0  0  0
 37 22  1  0  0  0  0
 38 43  1  0  0  0  0
 38 13  1  0  0  0  0
 39 38  1  0  0  0  0
 40 41  1  0  0  0  0
 40 39  1  0  0  0  0
 41 42  1  0  0  0  0
 42 43  1  0  0  0  0
 45 44  1  0  0  0  0
M  END
>  <minimizedAffinity>
-4.7731328

$$$$
