
 OpenBabel09092210413D

 45 50  0  0  0  0  0  0  0  0999 V2000
    7.2310   -1.2350    2.8660 C   0  0  0  0  0  0  0  0  0  0  0  0
    8.5660   -1.2910    2.4800 C   0  0  0  0  0  3  0  0  0  0  0  0
    9.4740   -0.3530    2.9760 C   0  0  0  0  0  3  0  0  0  0  0  0
    9.0700    0.6460    3.8760 C   0  0  0  0  0  0  0  0  0  0  0  0
    7.7020    0.7330    4.2550 C   0  0  0  0  0  0  0  0  0  0  0  0
    6.8100   -0.2260    3.7390 C   0  0  0  0  0  3  0  0  0  0  0  0
    7.1770    1.7850    5.1900 C   0  0  0  0  0  0  0  0  0  0  0  0
    6.1870    1.3250    6.2320 C   0  0  0  0  0  1  0  0  0  0  0  0
    7.6320    3.0570    5.0890 C   0  0  0  0  0  0  0  0  0  0  0  0
    8.5700    3.5280    4.0120 C   0  0  0  0  0  2  0  0  0  0  0  0
    9.8830    2.9620    4.2960 N   0  0  0  0  0  0  0  0  0  0  0  0
   10.0930    1.5980    4.3600 C   0  0  0  0  0  0  0  0  0  0  0  0
   11.2860    1.3980    5.0600 C   0  0  0  0  0  0  0  0  0  0  0  0
   11.8060    2.7050    5.3900 C   0  0  0  0  0  0  0  0  0  0  0  0
   12.9030    3.1820    6.1470 C   0  0  0  0  0  3  0  0  0  0  0  0
   13.0990    4.5600    6.3300 C   0  0  0  0  0  3  0  0  0  0  0  0
   12.2240    5.4710    5.7430 C   0  0  0  0  0  0  0  0  0  0  0  0
   11.1420    5.0360    4.9750 C   0  0  0  0  0  3  0  0  0  0  0  0
   10.9380    3.6530    4.8430 C   0  0  0  0  0  0  0  0  0  0  0  0
   12.3070    6.9260    6.0020 C   0  0  0  0  0  0  0  0  0  0  0  0
   12.1630    7.7280    5.0950 O   0  0  0  0  0  0  0  0  0  0  0  0
   12.4540    7.2390    7.3550 N   0  0  0  0  0  0  0  0  0  0  0  0
   12.1750    8.7130    8.0430 S   0  0  0  0  0  0  0  0  0  0  0  0
   12.5050    8.5170    9.4370 O   0  0  0  0  0  0  0  0  0  0  0  0
   12.7680    9.7700    7.2670 O   0  0  0  0  0  0  0  0  0  0  0  0
   10.4870    8.7600    7.9080 N   0  0  0  0  0  0  0  0  0  0  0  0
    9.9600    9.5300    6.7580 C   0  0  0  0  0  1  0  0  0  0  0  0
    9.7260    9.0250    9.1630 C   0  0  0  0  0  2  0  0  0  0  0  0
    9.5300    7.7430    9.9840 C   0  0  0  0  0  2  0  0  0  0  0  0
    8.3980    6.9710    9.5640 O   0  0  0  0  0  0  0  0  0  0  0  0
    8.6230    6.1990    8.3810 C   0  0  0  0  0  2  0  0  0  0  0  0
    7.5390    5.1150    8.2980 C   0  0  0  0  0  2  0  0  0  0  0  0
    7.8470    4.0500    7.3380 N   0  0  0  0  0  0  0  0  0  0  0  0
    8.7650    3.0160    7.8120 C   0  0  0  0  0  1  0  0  0  0  0  0
    7.3000    4.1310    6.0650 C   0  0  0  0  0  0  0  0  0  0  0  0
    6.6200    5.0790    5.6770 O   0  0  0  0  0  0  0  0  0  0  0  0
   12.4050    6.5040    8.0500 H   0  0  0  0  0  0  0  0  0  0  0  0
   11.8140    0.0450    5.4980 C   0  0  0  0  0  3  0  0  0  0  0  0
   10.8000   -0.8350    6.2420 C   0  0  0  0  0  2  0  0  0  0  0  0
   11.4380   -2.1450    6.7040 C   0  0  0  0  0  2  0  0  0  0  0  0
   12.0940   -2.8950    5.5460 C   0  0  0  0  0  2  0  0  0  0  0  0
   13.0910   -2.0190    4.7930 C   0  0  0  0  0  2  0  0  0  0  0  0
   12.4520   -0.7140    4.3240 C   0  0  0  0  0  2  0  0  0  0  0  0
    5.8840   -2.0530    1.0860 C   0  0  0  0  0  1  0  0  0  0  0  0
    6.2410   -2.0880    2.4620 O   0  0  0  0  0  0  0  0  0  0  0  0
  1  6  1  0  0  0  0
  2  1  2  0  0  0  0
  2  3  1  0  0  0  0
  3  4  2  0  0  0  0
  4  5  1  0  0  0  0
  4 12  1  0  0  0  0
  5  7  1  0  0  0  0
  6  5  2  0  0  0  0
  7  8  1  0  0  0  0
  9  7  2  0  0  0  0
  9 35  1  0  0  0  0
 10 11  1  0  0  0  0
 10  9  1  0  0  0  0
 11 12  1  0  0  0  0
 11 19  1  0  0  0  0
 12 13  2  0  0  0  0
 13 14  1  0  0  0  0
 13 38  1  0  0  0  0
 14 15  1  0  0  0  0
 15 16  2  0  0  0  0
 17 20  1  0  0  0  0
 17 16  1  0  0  0  0
 18 17  2  0  0  0  0
 19 18  1  0  0  0  0
 19 14  2  0  0  0  0
 20 22  1  0  0  0  0
 21 20  2  0  0  0  0
 22 23  1  0  0  0  0
 22 37  1  0  0  0  0
 23 24  2  0  0  0  0
 25 23  2  0  0  0  0
 26 23  1  0  0  0  0
 26 28  1  0  0  0  0
 27 26  1  0  0  0  0
 28 29  1  0  0  0  0
 30 29  1  0  0  0  0
 31 30  1  0  0  0  0
 32 31  1  0  0  0  0
 33 34  1  0  0  0  0
 33 32  1  0  0  0  0
 35 33  1  0  0  0  0
 36 35  2  0  0  0  0
 38 39  1  0  0  0  0
 39 40  1  0  0  0  0
 41 40  1  0  0  0  0
 42 41  1  0  0  0  0
 43 42  1  0  0  0  0
 43 38  1  0  0  0  0
 44 45  1  0  0  0  0
 45  1  1  0  0  0  0
M  END
>  <minimizedAffinity>
-5.1180191

$$$$
