
 OpenBabel09092210413D

 45 50  0  0  0  0  0  0  0  0999 V2000
    8.1840    8.3120   10.1670 C   0  0  0  0  0  0  0  0  0  0  0  0
    9.4820    8.4340    9.6840 C   0  0  0  0  0  3  0  0  0  0  0  0
    9.9760    7.5020    8.7710 C   0  0  0  0  0  3  0  0  0  0  0  0
    9.1800    6.4410    8.3110 C   0  0  0  0  0  0  0  0  0  0  0  0
    7.8600    6.2860    8.8200 C   0  0  0  0  0  0  0  0  0  0  0  0
    7.3900    7.2410    9.7400 C   0  0  0  0  0  3  0  0  0  0  0  0
    6.9500    5.1660    8.4060 C   0  0  0  0  0  0  0  0  0  0  0  0
    5.5100    5.5330    8.1440 C   0  0  0  0  0  1  0  0  0  0  0  0
    7.4520    3.9180    8.2490 C   0  0  0  0  0  0  0  0  0  0  0  0
    8.8720    3.5400    8.5720 C   0  0  0  0  0  2  0  0  0  0  0  0
    9.7260    4.1330    7.5490 N   0  0  0  0  0  0  0  0  0  0  0  0
    9.7740    5.4980    7.3380 C   0  0  0  0  0  0  0  0  0  0  0  0
   10.3070    5.6990    6.0620 C   0  0  0  0  0  0  0  0  0  0  0  0
   10.6100    4.3930    5.5220 C   0  0  0  0  0  0  0  0  0  0  0  0
   11.0740    3.9120    4.2740 C   0  0  0  0  0  3  0  0  0  0  0  0
   11.2060    2.5330    4.0460 C   0  0  0  0  0  3  0  0  0  0  0  0
   10.9050    1.6280    5.0590 C   0  0  0  0  0  0  0  0  0  0  0  0
   10.4630    2.0680    6.3090 C   0  0  0  0  0  3  0  0  0  0  0  0
   10.2930    3.4490    6.5010 C   0  0  0  0  0  0  0  0  0  0  0  0
   10.9070    0.1640    4.8390 C   0  0  0  0  0  0  0  0  0  0  0  0
   11.3760   -0.5900    5.6740 O   0  0  0  0  0  0  0  0  0  0  0  0
   10.2440   -0.2190    3.6710 N   0  0  0  0  0  0  0  0  0  0  0  0
    9.7020   -1.7390    3.3210 S   0  0  0  0  0  0  0  0  0  0  0  0
    9.1310   -1.6110    1.9980 O   0  0  0  0  0  0  0  0  0  0  0  0
   10.7020   -2.7300    3.6190 O   0  0  0  0  0  0  0  0  0  0  0  0
    8.4270   -1.8350    4.4320 N   0  0  0  0  0  0  0  0  0  0  0  0
    8.7300   -2.5570    5.6890 C   0  0  0  0  0  1  0  0  0  0  0  0
    7.0890   -2.1960    3.8800 C   0  0  0  0  0  2  0  0  0  0  0  0
    6.3690   -0.9700    3.3040 C   0  0  0  0  0  2  0  0  0  0  0  0
    5.6600   -0.2140    4.2930 O   0  0  0  0  0  0  0  0  0  0  0  0
    6.4930    0.6300    5.0920 C   0  0  0  0  0  2  0  0  0  0  0  0
    5.6050    1.6810    5.7750 C   0  0  0  0  0  2  0  0  0  0  0  0
    6.3560    2.8070    6.3380 N   0  0  0  0  0  0  0  0  0  0  0  0
    6.7510    3.8440    5.3860 C   0  0  0  0  0  1  0  0  0  0  0  0
    6.6740    2.7800    7.6890 C   0  0  0  0  0  0  0  0  0  0  0  0
    6.4130    1.8320    8.4280 O   0  0  0  0  0  0  0  0  0  0  0  0
    9.7490    0.4730    3.1220 H   0  0  0  0  0  0  0  0  0  0  0  0
   10.3910    7.0410    5.3620 C   0  0  0  0  0  3  0  0  0  0  0  0
   11.7940    7.4270    4.8710 C   0  0  0  0  0  2  0  0  0  0  0  0
   11.7950    8.8210    4.2420 C   0  0  0  0  0  2  0  0  0  0  0  0
   10.7540    8.9410    3.1300 C   0  0  0  0  0  2  0  0  0  0  0  0
    9.3610    8.5420    3.6090 C   0  0  0  0  0  2  0  0  0  0  0  0
    9.3570    7.1480    4.2300 C   0  0  0  0  0  2  0  0  0  0  0  0
    6.1540    9.1390   11.0900 C   0  0  0  0  0  1  0  0  0  0  0  0
    7.5750    9.1520   11.0590 O   0  0  0  0  0  0  0  0  0  0  0  0
  1 45  1  0  0  0  0
  2  1  2  0  0  0  0
  3  2  1  0  0  0  0
  4  3  2  0  0  0  0
  4  5  1  0  0  0  0
  5  6  2  0  0  0  0
  6  1  1  0  0  0  0
  7  5  1  0  0  0  0
  8  7  1  0  0  0  0
  9  7  2  0  0  0  0
  9 10  1  0  0  0  0
 11 10  1  0  0  0  0
 12 11  1  0  0  0  0
 12  4  1  0  0  0  0
 13 12  2  0  0  0  0
 14 13  1  0  0  0  0
 14 19  1  0  0  0  0
 15 14  2  0  0  0  0
 16 15  1  0  0  0  0
 16 17  2  0  0  0  0
 17 18  1  0  0  0  0
 18 19  2  0  0  0  0
 19 11  1  0  0  0  0
 20 17  1  0  0  0  0
 20 21  2  0  0  0  0
 22 20  1  0  0  0  0
 23 25  2  0  0  0  0
 23 22  1  0  0  0  0
 23 26  1  0  0  0  0
 24 23  2  0  0  0  0
 26 27  1  0  0  0  0
 28 26  1  0  0  0  0
 29 28  1  0  0  0  0
 29 30  1  0  0  0  0
 30 31  1  0  0  0  0
 31 32  1  0  0  0  0
 32 33  1  0  0  0  0
 33 35  1  0  0  0  0
 34 33  1  0  0  0  0
 35  9  1  0  0  0  0
 35 36  2  0  0  0  0
 37 22  1  0  0  0  0
 38 13  1  0  0  0  0
 39 38  1  0  0  0  0
 40 39  1  0  0  0  0
 41 42  1  0  0  0  0
 41 40  1  0  0  0  0
 42 43  1  0  0  0  0
 43 38  1  0  0  0  0
 45 44  1  0  0  0  0
M  END
>  <minimizedAffinity>
-4.981493

$$$$
