
 OpenBabel09092210413D

 45 50  0  0  0  0  0  0  0  0999 V2000
    4.3940   -1.8220    4.9340 C   0  0  0  0  0  0  0  0  0  0  0  0
    5.3650   -2.1040    3.9800 C   0  0  0  0  0  3  0  0  0  0  0  0
    6.4860   -1.2810    3.8620 C   0  0  0  0  0  3  0  0  0  0  0  0
    6.6650   -0.1700    4.7020 C   0  0  0  0  0  0  0  0  0  0  0  0
    5.6640    0.1480    5.6620 C   0  0  0  0  0  0  0  0  0  0  0  0
    4.5460   -0.7010    5.7580 C   0  0  0  0  0  3  0  0  0  0  0  0
    5.7600    1.3310    6.5830 C   0  0  0  0  0  0  0  0  0  0  0  0
    5.3540    1.1010    8.0170 C   0  0  0  0  0  1  0  0  0  0  0  0
    6.2310    2.5100    6.1100 C   0  0  0  0  0  0  0  0  0  0  0  0
    6.5740    2.7570    4.6670 C   0  0  0  0  0  2  0  0  0  0  0  0
    7.8010    2.0220    4.3770 N   0  0  0  0  0  0  0  0  0  0  0  0
    7.8820    0.6510    4.5190 C   0  0  0  0  0  0  0  0  0  0  0  0
    9.2380    0.3240    4.5990 C   0  0  0  0  0  0  0  0  0  0  0  0
    9.9770    1.5600    4.4670 C   0  0  0  0  0  0  0  0  0  0  0  0
   11.3440    1.9200    4.5510 C   0  0  0  0  0  3  0  0  0  0  0  0
   11.7360    3.2620    4.4340 C   0  0  0  0  0  3  0  0  0  0  0  0
   10.7800    4.2490    4.2080 C   0  0  0  0  0  0  0  0  0  0  0  0
    9.4250    3.9270    4.1010 C   0  0  0  0  0  3  0  0  0  0  0  0
    9.0500    2.5850    4.2670 C   0  0  0  0  0  0  0  0  0  0  0  0
   11.1180    5.6910    4.1980 C   0  0  0  0  0  0  0  0  0  0  0  0
   10.6340    6.4380    3.3660 O   0  0  0  0  0  0  0  0  0  0  0  0
   11.9280    6.0740    5.2700 N   0  0  0  0  0  0  0  0  0  0  0  0
   12.1600    7.6190    5.8020 S   0  0  0  0  0  0  0  0  0  0  0  0
   13.1000    7.4770    6.8920 O   0  0  0  0  0  0  0  0  0  0  0  0
   12.4060    8.5170    4.7040 O   0  0  0  0  0  0  0  0  0  0  0  0
   10.6290    7.9090    6.4680 N   0  0  0  0  0  0  0  0  0  0  0  0
    9.6910    8.6640    5.6060 C   0  0  0  0  0  1  0  0  0  0  0  0
   10.5960    8.3740    7.8850 C   0  0  0  0  0  2  0  0  0  0  0  0
   10.6970    7.1990    8.8660 C   0  0  0  0  0  2  0  0  0  0  0  0
    9.4340    6.5760    9.1330 O   0  0  0  0  0  0  0  0  0  0  0  0
    8.9840    5.6970    8.0990 C   0  0  0  0  0  2  0  0  0  0  0  0
    7.8950    4.7840    8.6790 C   0  0  0  0  0  2  0  0  0  0  0  0
    7.5970    3.6190    7.8400 N   0  0  0  0  0  0  0  0  0  0  0  0
    8.5250    2.4960    7.9640 C   0  0  0  0  0  1  0  0  0  0  0  0
    6.5160    3.6890    6.9730 C   0  0  0  0  0  0  0  0  0  0  0  0
    5.8290    4.6980    6.8250 O   0  0  0  0  0  0  0  0  0  0  0  0
   12.1490    5.4070    5.9990 H   0  0  0  0  0  0  0  0  0  0  0  0
    9.7780   -1.0570    4.9170 C   0  0  0  0  0  3  0  0  0  0  0  0
   10.8170   -1.5890    3.9200 C   0  0  0  0  0  2  0  0  0  0  0  0
   11.2520   -3.0100    4.2800 C   0  0  0  0  0  2  0  0  0  0  0  0
   11.7530   -3.1010    5.7210 C   0  0  0  0  0  2  0  0  0  0  0  0
   10.7300   -2.5570    6.7140 C   0  0  0  0  0  2  0  0  0  0  0  0
   10.3020   -1.1350    6.3600 C   0  0  0  0  0  2  0  0  0  0  0  0
    2.3340   -2.0180    6.1070 C   0  0  0  0  0  1  0  0  0  0  0  0
    3.2540   -2.5440    5.1590 O   0  0  0  0  0  0  0  0  0  0  0  0
  1 45  1  0  0  0  0
  1  6  1  0  0  0  0
  2  1  2  0  0  0  0
  3  2  1  0  0  0  0
  3  4  2  0  0  0  0
  4  5  1  0  0  0  0
  5  6  2  0  0  0  0
  5  7  1  0  0  0  0
  7  8  1  0  0  0  0
  9  7  2  0  0  0  0
  9 35  1  0  0  0  0
 10  9  1  0  0  0  0
 11 12  1  0  0  0  0
 11 10  1  0  0  0  0
 12 13  2  0  0  0  0
 12  4  1  0  0  0  0
 13 38  1  0  0  0  0
 14 15  1  0  0  0  0
 14 13  1  0  0  0  0
 16 15  2  0  0  0  0
 17 16  1  0  0  0  0
 18 17  2  0  0  0  0
 18 19  1  0  0  0  0
 19 11  1  0  0  0  0
 19 14  2  0  0  0  0
 20 17  1  0  0  0  0
 20 22  1  0  0  0  0
 21 20  2  0  0  0  0
 22 23  1  0  0  0  0
 22 37  1  0  0  0  0
 23 26  1  0  0  0  0
 23 24  2  0  0  0  0
 25 23  2  0  0  0  0
 26 28  1  0  0  0  0
 27 26  1  0  0  0  0
 28 29  1  0  0  0  0
 29 30  1  0  0  0  0
 31 32  1  0  0  0  0
 31 30  1  0  0  0  0
 33 34  1  0  0  0  0
 33 32  1  0  0  0  0
 35 33  1  0  0  0  0
 36 35  2  0  0  0  0
 38 43  1  0  0  0  0
 39 40  1  0  0  0  0
 39 38  1  0  0  0  0
 40 41  1  0  0  0  0
 41 42  1  0  0  0  0
 43 42  1  0  0  0  0
 45 44  1  0  0  0  0
M  END
>  <minimizedAffinity>
-4.85917091

$$$$
