
 OpenBabel09092210413D

 45 50  0  0  0  0  0  0  0  0999 V2000
    1.6740    7.1050    8.2150 C   0  0  0  0  0  0  0  0  0  0  0  0
    2.4970    8.1830    7.9110 C   0  0  0  0  0  3  0  0  0  0  0  0
    3.7210    7.9680    7.2750 C   0  0  0  0  0  3  0  0  0  0  0  0
    4.1380    6.6770    6.9180 C   0  0  0  0  0  0  0  0  0  0  0  0
    3.3200    5.5610    7.2500 C   0  0  0  0  0  0  0  0  0  0  0  0
    2.0920    5.8090    7.8910 C   0  0  0  0  0  3  0  0  0  0  0  0
    3.7000    4.1430    6.9300 C   0  0  0  0  0  0  0  0  0  0  0  0
    2.6020    3.2570    6.3970 C   0  0  0  0  0  1  0  0  0  0  0  0
    4.9840    3.7420    7.0920 C   0  0  0  0  0  0  0  0  0  0  0  0
    6.0640    4.6060    7.6840 C   0  0  0  0  0  2  0  0  0  0  0  0
    6.3900    5.6330    6.7010 N   0  0  0  0  0  0  0  0  0  0  0  0
    5.4460    6.5310    6.2410 C   0  0  0  0  0  0  0  0  0  0  0  0
    5.9300    7.0600    5.0420 C   0  0  0  0  0  0  0  0  0  0  0  0
    7.2270    6.4640    4.8120 C   0  0  0  0  0  0  0  0  0  0  0  0
    8.1740    6.5080    3.7610 C   0  0  0  0  0  3  0  0  0  0  0  0
    9.3450    5.7370    3.8230 C   0  0  0  0  0  3  0  0  0  0  0  0
    9.5950    4.9400    4.9380 C   0  0  0  0  0  0  0  0  0  0  0  0
    8.6920    4.8880    6.0010 C   0  0  0  0  0  3  0  0  0  0  0  0
    7.5050    5.6310    5.8980 C   0  0  0  0  0  0  0  0  0  0  0  0
   10.7490    4.0140    5.0060 C   0  0  0  0  0  0  0  0  0  0  0  0
   11.4020    3.9080    6.0290 O   0  0  0  0  0  0  0  0  0  0  0  0
   10.9090    3.2470    3.8490 N   0  0  0  0  0  0  0  0  0  0  0  0
   11.8010    1.8640    3.7230 S   0  0  0  0  0  0  0  0  0  0  0  0
   11.6720    1.4900    2.3310 O   0  0  0  0  0  0  0  0  0  0  0  0
   13.0880    2.0150    4.3480 O   0  0  0  0  0  0  0  0  0  0  0  0
   10.8210    0.8250    4.6340 N   0  0  0  0  0  0  0  0  0  0  0  0
   11.2460    0.6160    6.0370 C   0  0  0  0  0  1  0  0  0  0  0  0
   10.4010   -0.4440    3.9740 C   0  0  0  0  0  2  0  0  0  0  0  0
    9.1770   -0.2330    3.0740 C   0  0  0  0  0  2  0  0  0  0  0  0
    7.9340   -0.2940    3.7860 O   0  0  0  0  0  0  0  0  0  0  0  0
    7.6210    0.8920    4.5200 C   0  0  0  0  0  2  0  0  0  0  0  0
    6.1220    0.8740    4.8520 C   0  0  0  0  0  2  0  0  0  0  0  0
    5.6030    2.1730    5.2910 N   0  0  0  0  0  0  0  0  0  0  0  0
    5.2970    3.1260    4.2250 C   0  0  0  0  0  1  0  0  0  0  0  0
    5.4940    2.4150    6.6530 C   0  0  0  0  0  0  0  0  0  0  0  0
    5.8670    1.6210    7.5150 O   0  0  0  0  0  0  0  0  0  0  0  0
   10.2170    3.2970    3.1120 H   0  0  0  0  0  0  0  0  0  0  0  0
    5.1430    7.9670    4.1160 C   0  0  0  0  0  3  0  0  0  0  0  0
    5.8630    9.2630    3.7160 C   0  0  0  0  0  2  0  0  0  0  0  0
    4.9700   10.1440    2.8420 C   0  0  0  0  0  2  0  0  0  0  0  0
    4.4490    9.3870    1.6210 C   0  0  0  0  0  2  0  0  0  0  0  0
    3.7480    8.0900    2.0120 C   0  0  0  0  0  2  0  0  0  0  0  0
    4.6420    7.2060    2.8790 C   0  0  0  0  0  2  0  0  0  0  0  0
    0.3950    6.7650   10.1900 C   0  0  0  0  0  1  0  0  0  0  0  0
    0.4540    7.1730    8.8300 O   0  0  0  0  0  0  0  0  0  0  0  0
  1 45  1  0  0  0  0
  2  1  1  0  0  0  0
  3  2  2  0  0  0  0
  4  5  2  0  0  0  0
  4  3  1  0  0  0  0
  5  6  1  0  0  0  0
  6  1  2  0  0  0  0
  7  9  2  0  0  0  0
  7  5  1  0  0  0  0
  8  7  1  0  0  0  0
  9 10  1  0  0  0  0
 11 10  1  0  0  0  0
 12 11  1  0  0  0  0
 12  4  1  0  0  0  0
 13 12  2  0  0  0  0
 14 13  1  0  0  0  0
 14 19  1  0  0  0  0
 15 16  1  0  0  0  0
 15 14  2  0  0  0  0
 16 17  2  0  0  0  0
 17 20  1  0  0  0  0
 17 18  1  0  0  0  0
 19 18  2  0  0  0  0
 19 11  1  0  0  0  0
 20 21  2  0  0  0  0
 22 20  1  0  0  0  0
 23 22  1  0  0  0  0
 23 25  2  0  0  0  0
 23 26  1  0  0  0  0
 24 23  2  0  0  0  0
 26 27  1  0  0  0  0
 28 26  1  0  0  0  0
 29 30  1  0  0  0  0
 29 28  1  0  0  0  0
 30 31  1  0  0  0  0
 31 32  1  0  0  0  0
 32 33  1  0  0  0  0
 33 35  1  0  0  0  0
 34 33  1  0  0  0  0
 35  9  1  0  0  0  0
 35 36  2  0  0  0  0
 37 22  1  0  0  0  0
 38 13  1  0  0  0  0
 39 38  1  0  0  0  0
 40 39  1  0  0  0  0
 41 42  1  0  0  0  0
 41 40  1  0  0  0  0
 42 43  1  0  0  0  0
 43 38  1  0  0  0  0
 45 44  1  0  0  0  0
M  END
>  <minimizedAffinity>
-4.65381432

$$$$
