
 OpenBabel09092210413D

 45 50  0  0  0  0  0  0  0  0999 V2000
    3.9760   -0.9200    5.6800 C   0  0  0  0  0  0  0  0  0  0  0  0
    4.7750   -1.2070    4.5790 C   0  0  0  0  0  3  0  0  0  0  0  0
    5.8720   -0.3960    4.2840 C   0  0  0  0  0  3  0  0  0  0  0  0
    6.2000    0.7060    5.0890 C   0  0  0  0  0  0  0  0  0  0  0  0
    5.3730    1.0290    6.2010 C   0  0  0  0  0  0  0  0  0  0  0  0
    4.2740    0.1930    6.4740 C   0  0  0  0  0  3  0  0  0  0  0  0
    5.6330    2.2050    7.1000 C   0  0  0  0  0  0  0  0  0  0  0  0
    5.4630    1.9690    8.5800 C   0  0  0  0  0  1  0  0  0  0  0  0
    6.0360    3.3810    6.5630 C   0  0  0  0  0  0  0  0  0  0  0  0
    6.1420    3.6340    5.0840 C   0  0  0  0  0  2  0  0  0  0  0  0
    7.2960    2.8870    4.5950 N   0  0  0  0  0  0  0  0  0  0  0  0
    7.3810    1.5130    4.7140 C   0  0  0  0  0  0  0  0  0  0  0  0
    8.7280    1.1710    4.5700 C   0  0  0  0  0  0  0  0  0  0  0  0
    9.4510    2.3980    4.3260 C   0  0  0  0  0  0  0  0  0  0  0  0
   10.8180    2.7410    4.1870 C   0  0  0  0  0  3  0  0  0  0  0  0
   11.2030    4.0800    4.0150 C   0  0  0  0  0  3  0  0  0  0  0  0
   10.2360    5.0800    3.9530 C   0  0  0  0  0  0  0  0  0  0  0  0
    8.8780    4.7750    4.0670 C   0  0  0  0  0  3  0  0  0  0  0  0
    8.5170    3.4360    4.2860 C   0  0  0  0  0  0  0  0  0  0  0  0
   10.5860    6.5170    3.8960 C   0  0  0  0  0  0  0  0  0  0  0  0
    9.9830    7.2760    3.1580 O   0  0  0  0  0  0  0  0  0  0  0  0
   11.5650    6.8830    4.8230 N   0  0  0  0  0  0  0  0  0  0  0  0
   11.9000    8.4220    5.3180 S   0  0  0  0  0  0  0  0  0  0  0  0
   13.0040    8.2600    6.2400 O   0  0  0  0  0  0  0  0  0  0  0  0
   11.9760    9.3240    4.2000 O   0  0  0  0  0  0  0  0  0  0  0  0
   10.5020    8.7250    6.2260 N   0  0  0  0  0  0  0  0  0  0  0  0
    9.4460    9.4970    5.5330 C   0  0  0  0  0  1  0  0  0  0  0  0
   10.7070    9.1800    7.6320 C   0  0  0  0  0  2  0  0  0  0  0  0
   10.9510    7.9970    8.5770 C   0  0  0  0  0  2  0  0  0  0  0  0
    9.7410    7.3870    9.0430 O   0  0  0  0  0  0  0  0  0  0  0  0
    9.1170    6.5210    8.0920 C   0  0  0  0  0  2  0  0  0  0  0  0
    8.1260    5.6160    8.8380 C   0  0  0  0  0  2  0  0  0  0  0  0
    7.6800    4.4610    8.0520 N   0  0  0  0  0  0  0  0  0  0  0  0
    8.6010    3.3260    8.0170 C   0  0  0  0  0  1  0  0  0  0  0  0
    6.4720    4.5500    7.3740 C   0  0  0  0  0  0  0  0  0  0  0  0
    5.7840    5.5690    7.3450 O   0  0  0  0  0  0  0  0  0  0  0  0
   11.8930    6.2080    5.5030 H   0  0  0  0  0  0  0  0  0  0  0  0
    9.2950   -0.2190    4.7880 C   0  0  0  0  0  3  0  0  0  0  0  0
   10.1520   -0.7560    3.6330 C   0  0  0  0  0  2  0  0  0  0  0  0
   10.6210   -2.1840    3.9100 C   0  0  0  0  0  2  0  0  0  0  0  0
   11.3480   -2.2920    5.2500 C   0  0  0  0  0  2  0  0  0  0  0  0
   10.5060   -1.7440    6.3990 C   0  0  0  0  0  2  0  0  0  0  0  0
   10.0440   -0.3140    6.1270 C   0  0  0  0  0  2  0  0  0  0  0  0
    2.6510   -1.7240    7.4840 C   0  0  0  0  0  1  0  0  0  0  0  0
    2.8790   -1.6300    6.0840 O   0  0  0  0  0  0  0  0  0  0  0  0
  1 45  1  0  0  0  0
  1  6  1  0  0  0  0
  2  1  2  0  0  0  0
  3  2  1  0  0  0  0
  3  4  2  0  0  0  0
  4  5  1  0  0  0  0
  5  6  2  0  0  0  0
  5  7  1  0  0  0  0
  7  8  1  0  0  0  0
  9  7  2  0  0  0  0
  9 35  1  0  0  0  0
 10  9  1  0  0  0  0
 11 12  1  0  0  0  0
 11 10  1  0  0  0  0
 12  4  1  0  0  0  0
 13 12  2  0  0  0  0
 13 38  1  0  0  0  0
 14 13  1  0  0  0  0
 15 14  2  0  0  0  0
 16 15  1  0  0  0  0
 17 16  2  0  0  0  0
 17 18  1  0  0  0  0
 18 19  2  0  0  0  0
 19 14  1  0  0  0  0
 19 11  1  0  0  0  0
 20 17  1  0  0  0  0
 20 22  1  0  0  0  0
 21 20  2  0  0  0  0
 22 23  1  0  0  0  0
 22 37  1  0  0  0  0
 23 26  1  0  0  0  0
 23 24  2  0  0  0  0
 25 23  2  0  0  0  0
 26 28  1  0  0  0  0
 27 26  1  0  0  0  0
 28 29  1  0  0  0  0
 29 30  1  0  0  0  0
 31 32  1  0  0  0  0
 31 30  1  0  0  0  0
 33 32  1  0  0  0  0
 34 33  1  0  0  0  0
 35 33  1  0  0  0  0
 36 35  2  0  0  0  0
 38 43  1  0  0  0  0
 39 40  1  0  0  0  0
 39 38  1  0  0  0  0
 40 41  1  0  0  0  0
 41 42  1  0  0  0  0
 43 42  1  0  0  0  0
 45 44  1  0  0  0  0
M  END
>  <minimizedAffinity>
-4.80620623

$$$$
