
 OpenBabel09122222393D

 34 38  0  0  0  0  0  0  0  0999 V2000
    7.7110   -3.6900    2.8790 N   0  0  0  0  0  0  0  0  0  0  0  0
    8.8540   -2.9510    2.6310 C   0  0  0  0  0  0  0  0  0  0  0  0
    9.2170   -3.1690    1.3030 C   0  0  0  0  0  0  0  0  0  0  0  0
    8.3010   -4.1380    0.7710 C   0  0  0  0  0  0  0  0  0  0  0  0
    8.1660   -4.7810   -0.4790 C   0  0  0  0  0  3  0  0  0  0  0  0
    7.1640   -5.7420   -0.6740 C   0  0  0  0  0  3  0  0  0  0  0  0
    6.2730   -6.0820    0.3470 C   0  0  0  0  0  0  0  0  0  0  0  0
    6.3810   -5.4230    1.5840 C   0  0  0  0  0  3  0  0  0  0  0  0
    7.3930   -4.4630    1.7800 C   0  0  0  0  0  0  0  0  0  0  0  0
    9.5000   -2.1000    3.6270 C   0  0  0  0  0  0  0  0  0  0  0  0
   10.1470   -2.6730    4.7290 C   0  0  0  0  0  3  0  0  0  0  0  0
   10.7630   -1.8590    5.6820 C   0  0  0  0  0  3  0  0  0  0  0  0
   10.7280   -0.4740    5.5340 C   0  0  0  0  0  0  0  0  0  0  0  0
   11.4990    0.5300    6.6990 Cl  0  0  0  0  0  0  0  0  0  0  0  0
   10.0790    0.1070    4.4450 C   0  0  0  0  0  3  0  0  0  0  0  0
    9.4610   -0.7070    3.4930 C   0  0  0  0  0  3  0  0  0  0  0  0
   10.3810   -2.5150    0.5910 C   0  0  0  0  0  3  0  0  0  0  0  0
   11.3950   -3.5340    0.0470 C   0  0  0  0  0  2  0  0  0  0  0  0
   12.5700   -2.8440   -0.6400 C   0  0  0  0  0  2  0  0  0  0  0  0
   12.1020   -1.8830   -1.7290 C   0  0  0  0  0  2  0  0  0  0  0  0
   11.1050   -0.8620   -1.1880 C   0  0  0  0  0  2  0  0  0  0  0  0
    9.9190   -1.5400   -0.5060 C   0  0  0  0  0  2  0  0  0  0  0  0
    5.2110   -7.1470    0.1330 C   0  0  0  0  0  0  0  0  0  0  0  0
    5.2330   -7.7730   -0.9760 O   0  0  0  0  0  0  0  0  0  0  0  0
    4.3710   -7.3290    1.0700 O   0  0  0  0  0  1  0  0  0  0  0  0
    6.9950   -3.7300    4.1490 C   0  0  0  0  0  2  0  0  0  0  0  0
    5.1750   -5.3350    4.0930 O   0  0  0  0  0  0  0  0  0  0  0  0
    5.5490   -4.1670    4.0040 C   0  0  0  0  0  0  0  0  0  0  0  0
    4.6600   -3.1320    3.7750 N   0  0  0  0  0  0  0  0  0  0  0  0
    4.9970   -2.1820    3.6940 H   0  0  0  0  0  0  0  0  0  0  0  0
    3.2500   -3.3910    3.6300 C   0  0  0  0  0  2  0  0  0  0  0  0
    2.5670   -3.1850    4.9430 C   0  0  0  0  0  3  0  0  0  0  0  0
    3.0850   -2.1580    5.9170 C   0  0  0  0  0  2  0  0  0  0  0  0
    1.7740   -1.9320    5.2140 C   0  0  0  0  0  2  0  0  0  0  0  0
  1 26  1  0  0  0  0
  2  1  1  0  0  0  0
  2 10  1  0  0  0  0
  3  2  2  0  0  0  0
  4  3  1  0  0  0  0
  4  9  1  0  0  0  0
  5  4  2  0  0  0  0
  6  5  1  0  0  0  0
  6  7  2  0  0  0  0
  7  8  1  0  0  0  0
  8  9  2  0  0  0  0
  9  1  1  0  0  0  0
 10 11  1  0  0  0  0
 11 12  2  0  0  0  0
 13 12  1  0  0  0  0
 13 14  1  0  0  0  0
 15 13  2  0  0  0  0
 16 10  2  0  0  0  0
 16 15  1  0  0  0  0
 17  3  1  0  0  0  0
 18 17  1  0  0  0  0
 19 18  1  0  0  0  0
 20 21  1  0  0  0  0
 20 19  1  0  0  0  0
 21 22  1  0  0  0  0
 22 17  1  0  0  0  0
 23  7  1  0  0  0  0
 23 25  1  0  0  0  0
 24 23  2  0  0  0  0
 28 27  2  0  0  0  0
 28 26  1  0  0  0  0
 29 28  1  0  0  0  0
 30 29  1  0  0  0  0
 31 29  1  0  0  0  0
 31 32  1  0  0  0  0
 32 34  1  0  0  0  0
 32 33  1  0  0  0  0
 34 33  1  0  0  0  0
M  END
>  <minimizedAffinity>
-8.10006237

$$$$
