
 OpenBabel09122222393D

 34 38  0  0  0  0  0  0  0  0999 V2000
   10.6560    5.6170    3.3070 N   0  0  0  0  0  0  0  0  0  0  0  0
   10.8780    4.2710    3.0740 C   0  0  0  0  0  0  0  0  0  0  0  0
   10.7210    4.0480    1.7080 C   0  0  0  0  0  0  0  0  0  0  0  0
   10.3080    5.2930    1.1240 C   0  0  0  0  0  0  0  0  0  0  0  0
    9.9650    5.7000   -0.1840 C   0  0  0  0  0  3  0  0  0  0  0  0
    9.5470    7.0160   -0.4280 C   0  0  0  0  0  3  0  0  0  0  0  0
    9.4670    7.9570    0.6030 C   0  0  0  0  0  0  0  0  0  0  0  0
    9.8380    7.5680    1.9020 C   0  0  0  0  0  3  0  0  0  0  0  0
   10.2510    6.2430    2.1460 C   0  0  0  0  0  0  0  0  0  0  0  0
   11.2310    3.3160    4.1220 C   0  0  0  0  0  0  0  0  0  0  0  0
   12.5320    3.2830    4.6360 C   0  0  0  0  0  3  0  0  0  0  0  0
   12.8690    2.3700    5.6370 C   0  0  0  0  0  3  0  0  0  0  0  0
   11.9040    1.4870    6.1190 C   0  0  0  0  0  0  0  0  0  0  0  0
   12.3130    0.3710    7.3630 Cl  0  0  0  0  0  0  0  0  0  0  0  0
   10.6070    1.5060    5.6080 C   0  0  0  0  0  3  0  0  0  0  0  0
   10.2710    2.4190    4.6060 C   0  0  0  0  0  3  0  0  0  0  0  0
   10.9250    2.7250    1.0040 C   0  0  0  0  0  3  0  0  0  0  0  0
    9.6630    1.8470    1.0090 C   0  0  0  0  0  2  0  0  0  0  0  0
    9.9090    0.5080    0.3180 C   0  0  0  0  0  2  0  0  0  0  0  0
   10.4560    0.6950   -1.0950 C   0  0  0  0  0  2  0  0  0  0  0  0
   11.7160    1.5560   -1.1000 C   0  0  0  0  0  2  0  0  0  0  0  0
   11.4820    2.9020   -0.4190 C   0  0  0  0  0  2  0  0  0  0  0  0
    8.9840    9.3710    0.3310 C   0  0  0  0  0  0  0  0  0  0  0  0
    7.7430    9.6020    0.5000 O   0  0  0  0  0  1  0  0  0  0  0  0
    9.8500   10.2190   -0.0550 O   0  0  0  0  0  0  0  0  0  0  0  0
   10.7370    6.2700    4.6090 C   0  0  0  0  0  2  0  0  0  0  0  0
   12.9990    7.0740    4.2580 O   0  0  0  0  0  0  0  0  0  0  0  0
   11.8710    7.2730    4.7030 C   0  0  0  0  0  0  0  0  0  0  0  0
   11.5320    8.4610    5.3250 N   0  0  0  0  0  0  0  0  0  0  0  0
   10.6000    8.5940    5.6940 H   0  0  0  0  0  0  0  0  0  0  0  0
   12.5010    9.5170    5.4750 C   0  0  0  0  0  2  0  0  0  0  0  0
   11.8590   10.6950    6.1330 C   0  0  0  0  0  3  0  0  0  0  0  0
   11.1970   10.5470    7.4790 C   0  0  0  0  0  2  0  0  0  0  0  0
   12.4760   11.3300    7.3540 C   0  0  0  0  0  2  0  0  0  0  0  0
  1 26  1  0  0  0  0
  2  1  1  0  0  0  0
  2 10  1  0  0  0  0
  3  2  2  0  0  0  0
  4  3  1  0  0  0  0
  4  9  1  0  0  0  0
  5  4  2  0  0  0  0
  6  5  1  0  0  0  0
  6  7  2  0  0  0  0
  7  8  1  0  0  0  0
  8  9  2  0  0  0  0
  9  1  1  0  0  0  0
 10 16  2  0  0  0  0
 10 11  1  0  0  0  0
 11 12  2  0  0  0  0
 12 13  1  0  0  0  0
 13 14  1  0  0  0  0
 15 13  2  0  0  0  0
 16 15  1  0  0  0  0
 17 18  1  0  0  0  0
 17  3  1  0  0  0  0
 19 18  1  0  0  0  0
 20 19  1  0  0  0  0
 21 20  1  0  0  0  0
 21 22  1  0  0  0  0
 22 17  1  0  0  0  0
 23 24  1  0  0  0  0
 23  7  1  0  0  0  0
 25 23  2  0  0  0  0
 26 28  1  0  0  0  0
 27 28  2  0  0  0  0
 28 29  1  0  0  0  0
 29 31  1  0  0  0  0
 29 30  1  0  0  0  0
 31 32  1  0  0  0  0
 32 34  1  0  0  0  0
 32 33  1  0  0  0  0
 34 33  1  0  0  0  0
M  END
>  <minimizedAffinity>
-7.01414013

$$$$
