
 OpenBabel09122222393D

 34 38  0  0  0  0  0  0  0  0999 V2000
    7.5940   -3.7970    2.5730 N   0  0  0  0  0  0  0  0  0  0  0  0
    8.7840   -3.1070    2.4180 C   0  0  0  0  0  0  0  0  0  0  0  0
    9.2140   -3.2980    1.1070 C   0  0  0  0  0  0  0  0  0  0  0  0
    8.2870   -4.2020    0.4880 C   0  0  0  0  0  0  0  0  0  0  0  0
    8.1960   -4.7950   -0.7910 C   0  0  0  0  0  3  0  0  0  0  0  0
    7.1630   -5.6990   -1.0790 C   0  0  0  0  0  3  0  0  0  0  0  0
    6.1970   -6.0280   -0.1240 C   0  0  0  0  0  0  0  0  0  0  0  0
    6.2620   -5.4170    1.1410 C   0  0  0  0  0  3  0  0  0  0  0  0
    7.3050   -4.5150    1.4300 C   0  0  0  0  0  0  0  0  0  0  0  0
    9.4090   -2.3240    3.4810 C   0  0  0  0  0  0  0  0  0  0  0  0
   10.0130   -2.9670    4.5680 C   0  0  0  0  0  3  0  0  0  0  0  0
   10.6090   -2.2180    5.5840 C   0  0  0  0  0  3  0  0  0  0  0  0
   10.5960   -0.8250    5.5150 C   0  0  0  0  0  0  0  0  0  0  0  0
   11.3430    0.0990    6.7580 Cl  0  0  0  0  0  0  0  0  0  0  0  0
    9.9900   -0.1750    4.4410 C   0  0  0  0  0  3  0  0  0  0  0  0
    9.3920   -0.9250    3.4250 C   0  0  0  0  0  3  0  0  0  0  0  0
   10.4490   -2.6790    0.4880 C   0  0  0  0  0  3  0  0  0  0  0  0
   11.4930   -3.7260    0.0690 C   0  0  0  0  0  2  0  0  0  0  0  0
   12.7370   -3.0700   -0.5260 C   0  0  0  0  0  2  0  0  0  0  0  0
   12.3850   -2.1350   -1.6790 C   0  0  0  0  0  2  0  0  0  0  0  0
   11.3580   -1.0870   -1.2610 C   0  0  0  0  0  2  0  0  0  0  0  0
   10.1040   -1.7300   -0.6730 C   0  0  0  0  0  2  0  0  0  0  0  0
    5.1010   -7.0310   -0.4380 C   0  0  0  0  0  0  0  0  0  0  0  0
    3.9070   -6.6930   -0.1530 O   0  0  0  0  0  1  0  0  0  0  0  0
    5.4550   -8.1380   -0.9540 O   0  0  0  0  0  0  0  0  0  0  0  0
    6.8020   -3.8440    3.7970 C   0  0  0  0  0  2  0  0  0  0  0  0
    4.5560   -3.4740    2.9560 O   0  0  0  0  0  0  0  0  0  0  0  0
    5.3480   -4.2000    3.5520 C   0  0  0  0  0  0  0  0  0  0  0  0
    4.9720   -5.4360    4.0480 N   0  0  0  0  0  0  0  0  0  0  0  0
    5.6400   -6.0080    4.5470 H   0  0  0  0  0  0  0  0  0  0  0  0
    3.6250   -5.9190    3.8780 C   0  0  0  0  0  2  0  0  0  0  0  0
    3.6490   -7.2190    3.1420 C   0  0  0  0  0  3  0  0  0  0  0  0
    4.8090   -8.1660    3.3090 C   0  0  0  0  0  2  0  0  0  0  0  0
    3.4610   -8.5240    3.8710 C   0  0  0  0  0  2  0  0  0  0  0  0
  1 26  1  0  0  0  0
  2  1  1  0  0  0  0
  2 10  1  0  0  0  0
  3  2  2  0  0  0  0
  4  3  1  0  0  0  0
  4  9  1  0  0  0  0
  5  4  2  0  0  0  0
  6  5  1  0  0  0  0
  6  7  2  0  0  0  0
  7  8  1  0  0  0  0
  8  9  2  0  0  0  0
  9  1  1  0  0  0  0
 10 11  1  0  0  0  0
 11 12  2  0  0  0  0
 13 12  1  0  0  0  0
 13 14  1  0  0  0  0
 15 13  2  0  0  0  0
 16 10  2  0  0  0  0
 16 15  1  0  0  0  0
 17  3  1  0  0  0  0
 18 17  1  0  0  0  0
 19 18  1  0  0  0  0
 20 21  1  0  0  0  0
 20 19  1  0  0  0  0
 21 22  1  0  0  0  0
 22 17  1  0  0  0  0
 23 24  1  0  0  0  0
 23  7  1  0  0  0  0
 25 23  2  0  0  0  0
 27 28  2  0  0  0  0
 28 26  1  0  0  0  0
 28 29  1  0  0  0  0
 29 30  1  0  0  0  0
 31 29  1  0  0  0  0
 32 33  1  0  0  0  0
 32 34  1  0  0  0  0
 32 31  1  0  0  0  0
 33 34  1  0  0  0  0
M  END
>  <minimizedAffinity>
-7.90108681

$$$$
