
 OpenBabel09122222393D

 34 38  0  0  0  0  0  0  0  0999 V2000
   11.7720    4.1460    2.8380 N   0  0  0  0  0  0  0  0  0  0  0  0
   11.3810    4.2820    1.5170 C   0  0  0  0  0  0  0  0  0  0  0  0
   11.1700    5.6380    1.2780 C   0  0  0  0  0  0  0  0  0  0  0  0
   11.3640    6.3200    2.5260 C   0  0  0  0  0  0  0  0  0  0  0  0
   11.2650    7.6680    2.9370 C   0  0  0  0  0  3  0  0  0  0  0  0
   11.4780    8.0150    4.2780 C   0  0  0  0  0  3  0  0  0  0  0  0
   11.8010    7.0510    5.2370 C   0  0  0  0  0  0  0  0  0  0  0  0
   11.9330    5.7120    4.8300 C   0  0  0  0  0  3  0  0  0  0  0  0
   11.7110    5.3640    3.4830 C   0  0  0  0  0  0  0  0  0  0  0  0
   11.2520    3.1590    0.5920 C   0  0  0  0  0  0  0  0  0  0  0  0
   10.1960    2.2500    0.7290 C   0  0  0  0  0  3  0  0  0  0  0  0
   10.0740    1.1770   -0.1550 C   0  0  0  0  0  3  0  0  0  0  0  0
   11.0110    1.0100   -1.1740 C   0  0  0  0  0  0  0  0  0  0  0  0
   10.8530   -0.3030   -2.2730 Cl  0  0  0  0  0  0  0  0  0  0  0  0
   12.0710    1.9050   -1.3140 C   0  0  0  0  0  3  0  0  0  0  0  0
   12.1940    2.9780   -0.4290 C   0  0  0  0  0  3  0  0  0  0  0  0
   10.7820    6.2460   -0.0530 C   0  0  0  0  0  3  0  0  0  0  0  0
    9.3070    6.6750   -0.1020 C   0  0  0  0  0  2  0  0  0  0  0  0
    8.9390    7.2580   -1.4650 C   0  0  0  0  0  2  0  0  0  0  0  0
    9.8690    8.4010   -1.8600 C   0  0  0  0  0  2  0  0  0  0  0  0
   11.3340    7.9740   -1.8230 C   0  0  0  0  0  2  0  0  0  0  0  0
   11.7180    7.3970   -0.4610 C   0  0  0  0  0  2  0  0  0  0  0  0
   12.0000    7.4360    6.6930 C   0  0  0  0  0  0  0  0  0  0  0  0
   12.7150    6.6610    7.4060 O   0  0  0  0  0  1  0  0  0  0  0  0
   11.4290    8.4980    7.0970 O   0  0  0  0  0  0  0  0  0  0  0  0
   12.1060    2.8840    3.4900 C   0  0  0  0  0  2  0  0  0  0  0  0
    9.7850    2.6890    4.1700 O   0  0  0  0  0  0  0  0  0  0  0  0
   10.9420    2.2820    4.2530 C   0  0  0  0  0  0  0  0  0  0  0  0
   11.2810    1.2080    5.0570 N   0  0  0  0  0  0  0  0  0  0  0  0
   12.2430    0.9020    5.1170 H   0  0  0  0  0  0  0  0  0  0  0  0
   10.2780    0.5230    5.8330 C   0  0  0  0  0  2  0  0  0  0  0  0
    9.9560   -0.7860    5.1870 C   0  0  0  0  0  3  0  0  0  0  0  0
   10.4140   -2.0770    5.8150 C   0  0  0  0  0  2  0  0  0  0  0  0
    8.9510   -1.7250    5.8040 C   0  0  0  0  0  2  0  0  0  0  0  0
  1  9  1  0  0  0  0
  1 26  1  0  0  0  0
  2  1  1  0  0  0  0
  3  2  2  0  0  0  0
  3  4  1  0  0  0  0
  4  5  2  0  0  0  0
  4  9  1  0  0  0  0
  5  6  1  0  0  0  0
  6  7  2  0  0  0  0
  7 23  1  0  0  0  0
  8  7  1  0  0  0  0
  9  8  2  0  0  0  0
 10 11  1  0  0  0  0
 10  2  1  0  0  0  0
 12 11  2  0  0  0  0
 13 12  1  0  0  0  0
 14 13  1  0  0  0  0
 15 13  2  0  0  0  0
 15 16  1  0  0  0  0
 16 10  2  0  0  0  0
 17  3  1  0  0  0  0
 18 17  1  0  0  0  0
 19 18  1  0  0  0  0
 20 21  1  0  0  0  0
 20 19  1  0  0  0  0
 21 22  1  0  0  0  0
 22 17  1  0  0  0  0
 23 25  2  0  0  0  0
 23 24  1  0  0  0  0
 26 28  1  0  0  0  0
 27 28  2  0  0  0  0
 28 29  1  0  0  0  0
 29 30  1  0  0  0  0
 29 31  1  0  0  0  0
 32 34  1  0  0  0  0
 32 33  1  0  0  0  0
 32 31  1  0  0  0  0
 34 33  1  0  0  0  0
M  END
>  <minimizedAffinity>
-7.05679178

$$$$
