
 OpenBabel09122222393D

 34 38  0  0  0  0  0  0  0  0999 V2000
   10.2980    1.8530    0.4940 N   0  0  0  0  0  0  0  0  0  0  0  0
   10.5100    3.0010    1.2370 C   0  0  0  0  0  0  0  0  0  0  0  0
   10.3890    2.6610    2.5830 C   0  0  0  0  0  0  0  0  0  0  0  0
   10.0100    1.2770    2.6330 C   0  0  0  0  0  0  0  0  0  0  0  0
    9.7100    0.3760    3.6790 C   0  0  0  0  0  3  0  0  0  0  0  0
    9.3170   -0.9380    3.3890 C   0  0  0  0  0  3  0  0  0  0  0  0
    9.2200   -1.3940    2.0710 C   0  0  0  0  0  0  0  0  0  0  0  0
    9.5480   -0.5130    1.0260 C   0  0  0  0  0  3  0  0  0  0  0  0
    9.9350    0.8090    1.3200 C   0  0  0  0  0  0  0  0  0  0  0  0
   10.8190    4.3020    0.6480 C   0  0  0  0  0  0  0  0  0  0  0  0
   12.1500    4.6790    0.4320 C   0  0  0  0  0  3  0  0  0  0  0  0
   12.4450    5.9220   -0.1300 C   0  0  0  0  0  3  0  0  0  0  0  0
   11.4080    6.7890   -0.4730 C   0  0  0  0  0  0  0  0  0  0  0  0
   11.7700    8.3150   -1.1800 Cl  0  0  0  0  0  0  0  0  0  0  0  0
   10.0800    6.4260   -0.2550 C   0  0  0  0  0  3  0  0  0  0  0  0
    9.7850    5.1830    0.3090 C   0  0  0  0  0  3  0  0  0  0  0  0
   10.5950    3.6010    3.7500 C   0  0  0  0  0  3  0  0  0  0  0  0
    9.6650    3.2920    4.9350 C   0  0  0  0  0  2  0  0  0  0  0  0
    9.8770    4.2740    6.0840 C   0  0  0  0  0  2  0  0  0  0  0  0
   11.3390    4.3280    6.5180 C   0  0  0  0  0  2  0  0  0  0  0  0
   12.2620    4.6470    5.3460 C   0  0  0  0  0  2  0  0  0  0  0  0
   12.0670    3.6660    4.1920 C   0  0  0  0  0  2  0  0  0  0  0  0
    8.7640   -2.8110    1.7690 C   0  0  0  0  0  0  0  0  0  0  0  0
    8.0530   -3.3920    2.6510 O   0  0  0  0  0  1  0  0  0  0  0  0
    9.1330   -3.3190    0.6630 O   0  0  0  0  0  0  0  0  0  0  0  0
   10.3510    1.7730   -0.9620 C   0  0  0  0  0  2  0  0  0  0  0  0
   12.7240    1.8180   -1.4680 O   0  0  0  0  0  0  0  0  0  0  0  0
   11.6590    1.2050   -1.4800 C   0  0  0  0  0  0  0  0  0  0  0  0
   11.5670   -0.0880   -1.9630 N   0  0  0  0  0  0  0  0  0  0  0  0
   10.6760   -0.5660   -1.9740 H   0  0  0  0  0  0  0  0  0  0  0  0
   12.7310   -0.7670   -2.4760 C   0  0  0  0  0  2  0  0  0  0  0  0
   12.9820   -2.0030   -1.6750 C   0  0  0  0  0  3  0  0  0  0  0  0
   11.8650   -2.9820   -1.4180 C   0  0  0  0  0  2  0  0  0  0  0  0
   12.9990   -3.3590   -2.3310 C   0  0  0  0  0  2  0  0  0  0  0  0
  1  2  1  0  0  0  0
  1  9  1  0  0  0  0
  2  3  2  0  0  0  0
  3  4  1  0  0  0  0
  3 17  1  0  0  0  0
  4  5  1  0  0  0  0
  6  5  2  0  0  0  0
  7  6  1  0  0  0  0
  8  9  1  0  0  0  0
  8  7  2  0  0  0  0
  9  4  2  0  0  0  0
 10  2  1  0  0  0  0
 11 10  1  0  0  0  0
 12 11  2  0  0  0  0
 13 15  2  0  0  0  0
 13 12  1  0  0  0  0
 14 13  1  0  0  0  0
 15 16  1  0  0  0  0
 16 10  2  0  0  0  0
 17 22  1  0  0  0  0
 17 18  1  0  0  0  0
 18 19  1  0  0  0  0
 19 20  1  0  0  0  0
 21 20  1  0  0  0  0
 22 21  1  0  0  0  0
 23  7  1  0  0  0  0
 23 24  1  0  0  0  0
 25 23  2  0  0  0  0
 26  1  1  0  0  0  0
 28 27  2  0  0  0  0
 28 26  1  0  0  0  0
 29 28  1  0  0  0  0
 30 29  1  0  0  0  0
 31 29  1  0  0  0  0
 31 32  1  0  0  0  0
 32 33  1  0  0  0  0
 34 32  1  0  0  0  0
 34 33  1  0  0  0  0
M  END
>  <minimizedAffinity>
-7.71386194

$$$$
