
 OpenBabel09122222393D

 34 38  0  0  0  0  0  0  0  0999 V2000
    6.5750   -3.5710    3.7100 N   0  0  0  0  0  0  0  0  0  0  0  0
    7.8090   -2.9450    3.7290 C   0  0  0  0  0  0  0  0  0  0  0  0
    8.1710   -2.7650    5.0620 C   0  0  0  0  0  0  0  0  0  0  0  0
    7.0720   -3.2280    5.8620 C   0  0  0  0  0  0  0  0  0  0  0  0
    6.8180   -3.2800    7.2500 C   0  0  0  0  0  3  0  0  0  0  0  0
    5.5910   -3.7610    7.7270 C   0  0  0  0  0  3  0  0  0  0  0  0
    4.5960   -4.2070    6.8530 C   0  0  0  0  0  0  0  0  0  0  0  0
    4.8530   -4.1880    5.4700 C   0  0  0  0  0  3  0  0  0  0  0  0
    6.0840   -3.6980    4.9940 C   0  0  0  0  0  0  0  0  0  0  0  0
    8.5510   -2.5830    2.5230 C   0  0  0  0  0  0  0  0  0  0  0  0
    9.1850   -3.5730    1.7620 C   0  0  0  0  0  3  0  0  0  0  0  0
    9.8940   -3.2270    0.6110 C   0  0  0  0  0  3  0  0  0  0  0  0
    9.9740   -1.8900    0.2240 C   0  0  0  0  0  0  0  0  0  0  0  0
   10.8360   -1.4630   -1.2020 Cl  0  0  0  0  0  0  0  0  0  0  0  0
    9.3540   -0.8960    0.9800 C   0  0  0  0  0  3  0  0  0  0  0  0
    8.6450   -1.2420    2.1320 C   0  0  0  0  0  3  0  0  0  0  0  0
    9.4730   -2.1660    5.5470 C   0  0  0  0  0  3  0  0  0  0  0  0
    9.5130   -0.6360    5.4060 C   0  0  0  0  0  2  0  0  0  0  0  0
   10.8480   -0.0640    5.8760 C   0  0  0  0  0  2  0  0  0  0  0  0
   11.1820   -0.5060    7.2990 C   0  0  0  0  0  2  0  0  0  0  0  0
   11.1550   -2.0250    7.4370 C   0  0  0  0  0  2  0  0  0  0  0  0
    9.8210   -2.6090    6.9790 C   0  0  0  0  0  2  0  0  0  0  0  0
    3.2590   -4.6980    7.3800 C   0  0  0  0  0  0  0  0  0  0  0  0
    2.9190   -5.8890    7.0850 O   0  0  0  0  0  0  0  0  0  0  0  0
    2.5690   -3.8810    8.0700 O   0  0  0  0  0  1  0  0  0  0  0  0
    5.8450   -3.9540    2.5070 C   0  0  0  0  0  2  0  0  0  0  0  0
    6.9530   -6.0670    2.0650 O   0  0  0  0  0  0  0  0  0  0  0  0
    5.9060   -5.4430    2.2220 C   0  0  0  0  0  0  0  0  0  0  0  0
    4.6710   -6.0640    2.1670 N   0  0  0  0  0  0  0  0  0  0  0  0
    3.8240   -5.5240    2.2870 H   0  0  0  0  0  0  0  0  0  0  0  0
    4.5690   -7.4800    1.9190 C   0  0  0  0  0  2  0  0  0  0  0  0
    4.2330   -7.7130    0.4810 C   0  0  0  0  0  3  0  0  0  0  0  0
    4.3940   -6.6040   -0.5260 C   0  0  0  0  0  2  0  0  0  0  0  0
    5.3170   -7.7910   -0.5630 C   0  0  0  0  0  2  0  0  0  0  0  0
  1  2  1  0  0  0  0
  1  9  1  0  0  0  0
  2  3  2  0  0  0  0
  3 17  1  0  0  0  0
  3  4  1  0  0  0  0
  4  5  1  0  0  0  0
  5  6  2  0  0  0  0
  7 23  1  0  0  0  0
  7  6  1  0  0  0  0
  8  7  2  0  0  0  0
  9  8  1  0  0  0  0
  9  4  2  0  0  0  0
 10  2  1  0  0  0  0
 11 10  2  0  0  0  0
 12 11  1  0  0  0  0
 13 12  2  0  0  0  0
 13 15  1  0  0  0  0
 14 13  1  0  0  0  0
 15 16  2  0  0  0  0
 16 10  1  0  0  0  0
 17 22  1  0  0  0  0
 18 17  1  0  0  0  0
 18 19  1  0  0  0  0
 19 20  1  0  0  0  0
 20 21  1  0  0  0  0
 22 21  1  0  0  0  0
 23 25  1  0  0  0  0
 24 23  2  0  0  0  0
 26  1  1  0  0  0  0
 27 28  2  0  0  0  0
 28 26  1  0  0  0  0
 29 28  1  0  0  0  0
 29 30  1  0  0  0  0
 31 29  1  0  0  0  0
 32 31  1  0  0  0  0
 33 32  1  0  0  0  0
 34 33  1  0  0  0  0
 34 32  1  0  0  0  0
M  END
>  <minimizedAffinity>
-6.83670187

$$$$
