
 OpenBabel09122218043D

 24 27  0  0  0  0  0  0  0  0999 V2000
    4.2950   -7.5860    3.6280 C   0  0  0  0  0  0  0  0  0  0  0  0
    3.6790   -7.1800    4.7160 N   0  0  0  0  0  0  0  0  0  0  0  0
    3.5830   -5.8170    4.6070 C   0  0  0  0  0  0  0  0  0  0  0  0
    2.9960   -4.8920    5.4850 C   0  0  0  0  0  3  0  0  0  0  0  0
    3.0180   -3.5180    5.1780 C   0  0  0  0  0  0  0  0  0  0  0  0
    3.6310   -3.1040    3.9840 C   0  0  0  0  0  3  0  0  0  0  0  0
    4.2230   -4.0090    3.0940 C   0  0  0  0  0  3  0  0  0  0  0  0
    4.1870   -5.3680    3.4330 C   0  0  0  0  0  0  0  0  0  0  0  0
    4.6690   -6.5170    2.8350 N   0  0  0  0  0  0  0  0  0  0  0  0
    2.6100   -9.3130    1.8280 C   0  0  0  0  0  1  0  0  0  0  0  0
    3.7870   -9.7530    2.5470 N   0  0  0  0  0  0  0  0  0  0  0  0
    4.2880  -11.0310    2.5140 C   0  0  0  0  0  3  0  0  0  0  0  0
    5.4220  -11.0650    3.2940 C   0  0  0  0  0  3  0  0  0  0  0  0
    5.6010   -9.7660    3.8280 C   0  0  0  0  0  3  0  0  0  0  0  0
    4.5600   -8.9720    3.3770 C   0  0  0  0  0  0  0  0  0  0  0  0
    5.5030   -6.5890    1.6400 C   0  0  0  0  0  3  0  0  0  0  0  0
    4.6860   -6.5440    0.3400 C   0  0  0  0  0  2  0  0  0  0  0  0
    5.5880   -6.6800   -0.8870 C   0  0  0  0  0  2  0  0  0  0  0  0
    6.7130   -5.6480   -0.8810 C   0  0  0  0  0  2  0  0  0  0  0  0
    7.5300   -5.7120    0.4070 C   0  0  0  0  0  2  0  0  0  0  0  0
    6.6460   -5.5590    1.6430 C   0  0  0  0  0  2  0  0  0  0  0  0
    2.3960   -2.5040    6.1180 C   0  0  0  0  0  0  0  0  0  0  0  0
    1.7070   -1.5730    5.5970 O   0  0  0  0  0  0  0  0  0  0  0  0
    2.6080   -2.6640    7.3620 O   0  0  0  0  0  1  0  0  0  0  0  0
  1  2  2  0  0  0  0
  3  2  1  0  0  0  0
  3  4  1  0  0  0  0
  5  4  2  0  0  0  0
  5 22  1  0  0  0  0
  6  5  1  0  0  0  0
  7  8  1  0  0  0  0
  7  6  2  0  0  0  0
  8  3  2  0  0  0  0
  9  8  1  0  0  0  0
  9  1  1  0  0  0  0
 10 11  1  0  0  0  0
 11 15  1  0  0  0  0
 12 11  1  0  0  0  0
 12 13  2  0  0  0  0
 13 14  1  0  0  0  0
 15  1  1  0  0  0  0
 15 14  2  0  0  0  0
 16 21  1  0  0  0  0
 16  9  1  0  0  0  0
 17 16  1  0  0  0  0
 18 19  1  0  0  0  0
 18 17  1  0  0  0  0
 19 20  1  0  0  0  0
 20 21  1  0  0  0  0
 22 24  1  0  0  0  0
 23 22  2  0  0  0  0
M  END
>  <minimizedAffinity>
-7.57300043

$$$$

 OpenBabel09122218043D

 24 27  0  0  0  0  0  0  0  0999 V2000
    3.7650   -4.0780    4.3520 C   0  0  0  0  0  0  0  0  0  0  0  0
    4.3640   -3.7740    3.2220 N   0  0  0  0  0  0  0  0  0  0  0  0
    4.5110   -4.9570    2.5450 C   0  0  0  0  0  0  0  0  0  0  0  0
    5.0690   -5.1940    1.2790 C   0  0  0  0  0  3  0  0  0  0  0  0
    5.1270   -6.5070    0.7710 C   0  0  0  0  0  0  0  0  0  0  0  0
    4.6150   -7.5550    1.5520 C   0  0  0  0  0  3  0  0  0  0  0  0
    4.0540   -7.3410    2.8180 C   0  0  0  0  0  3  0  0  0  0  0  0
    4.0170   -6.0240    3.2940 C   0  0  0  0  0  0  0  0  0  0  0  0
    3.5740   -5.4420    4.4670 N   0  0  0  0  0  0  0  0  0  0  0  0
    5.7520   -2.8440    6.2470 C   0  0  0  0  0  1  0  0  0  0  0  0
    4.3430   -2.5170    6.1830 N   0  0  0  0  0  0  0  0  0  0  0  0
    3.7170   -1.6030    6.9940 C   0  0  0  0  0  3  0  0  0  0  0  0
    2.3920   -1.5420    6.6260 C   0  0  0  0  0  3  0  0  0  0  0  0
    2.2100   -2.4630    5.5660 C   0  0  0  0  0  3  0  0  0  0  0  0
    3.4250   -3.0810    5.3240 C   0  0  0  0  0  0  0  0  0  0  0  0
    3.0840   -6.1410    5.6510 C   0  0  0  0  0  3  0  0  0  0  0  0
    3.7810   -5.6850    6.9420 C   0  0  0  0  0  2  0  0  0  0  0  0
    3.2850   -6.4790    8.1500 C   0  0  0  0  0  2  0  0  0  0  0  0
    1.7630   -6.4320    8.2730 C   0  0  0  0  0  2  0  0  0  0  0  0
    1.0790   -6.9020    6.9920 C   0  0  0  0  0  2  0  0  0  0  0  0
    1.5510   -6.1070    5.7770 C   0  0  0  0  0  2  0  0  0  0  0  0
    5.7340   -6.7840   -0.5910 C   0  0  0  0  0  0  0  0  0  0  0  0
    5.4420   -7.8890   -1.1440 O   0  0  0  0  0  0  0  0  0  0  0  0
    6.4880   -5.8840   -1.0810 O   0  0  0  0  0  1  0  0  0  0  0  0
  1  9  1  0  0  0  0
  1 15  1  0  0  0  0
  2  1  2  0  0  0  0
  3  2  1  0  0  0  0
  3  8  1  0  0  0  0
  4  3  2  0  0  0  0
  5  4  1  0  0  0  0
  5  6  2  0  0  0  0
  6  7  1  0  0  0  0
  7  8  2  0  0  0  0
  8  9  1  0  0  0  0
  9 16  1  0  0  0  0
 11 10  1  0  0  0  0
 11 12  1  0  0  0  0
 13 12  2  0  0  0  0
 14 13  1  0  0  0  0
 15 14  2  0  0  0  0
 15 11  1  0  0  0  0
 16 21  1  0  0  0  0
 16 17  1  0  0  0  0
 17 18  1  0  0  0  0
 18 19  1  0  0  0  0
 20 19  1  0  0  0  0
 21 20  1  0  0  0  0
 22  5  1  0  0  0  0
 23 22  2  0  0  0  0
 24 22  1  0  0  0  0
M  END
>  <minimizedAffinity>
-6.66326141

$$$$

 OpenBabel09122218043D

 24 27  0  0  0  0  0  0  0  0999 V2000
    3.5960   -7.8500    3.1990 C   0  0  0  0  0  0  0  0  0  0  0  0
    2.9960   -7.5720    4.3350 N   0  0  0  0  0  0  0  0  0  0  0  0
    3.2860   -6.2580    4.6020 C   0  0  0  0  0  0  0  0  0  0  0  0
    2.8770   -5.4570    5.6800 C   0  0  0  0  0  3  0  0  0  0  0  0
    3.3050   -4.1180    5.7630 C   0  0  0  0  0  0  0  0  0  0  0  0
    4.1360   -3.6120    4.7510 C   0  0  0  0  0  3  0  0  0  0  0  0
    4.5560   -4.3930    3.6660 C   0  0  0  0  0  3  0  0  0  0  0  0
    4.1150   -5.7220    3.6180 C   0  0  0  0  0  0  0  0  0  0  0  0
    4.3320   -6.7710    2.7440 N   0  0  0  0  0  0  0  0  0  0  0  0
    5.6420  -10.0260    3.5680 C   0  0  0  0  0  1  0  0  0  0  0  0
    4.4410  -10.1350    2.7660 N   0  0  0  0  0  0  0  0  0  0  0  0
    4.0790  -11.2490    2.0510 C   0  0  0  0  0  3  0  0  0  0  0  0
    2.8730  -10.9910    1.4390 C   0  0  0  0  0  3  0  0  0  0  0  0
    2.5030   -9.6680    1.7870 C   0  0  0  0  0  3  0  0  0  0  0  0
    3.5030   -9.1420    2.5870 C   0  0  0  0  0  0  0  0  0  0  0  0
    5.2430   -6.7770    1.6040 C   0  0  0  0  0  3  0  0  0  0  0  0
    4.5130   -6.9040    0.2590 C   0  0  0  0  0  2  0  0  0  0  0  0
    5.5020   -6.9650   -0.9050 C   0  0  0  0  0  2  0  0  0  0  0  0
    6.4720   -5.7860   -0.8880 C   0  0  0  0  0  2  0  0  0  0  0  0
    7.2050   -5.6790    0.4460 C   0  0  0  0  0  2  0  0  0  0  0  0
    6.2310   -5.5980    1.6190 C   0  0  0  0  0  2  0  0  0  0  0  0
    2.8800   -3.2400    6.9240 C   0  0  0  0  0  0  0  0  0  0  0  0
    2.5940   -3.8190    8.0180 O   0  0  0  0  0  1  0  0  0  0  0  0
    2.8460   -1.9850    6.7170 O   0  0  0  0  0  0  0  0  0  0  0  0
  1  2  2  0  0  0  0
  2  3  1  0  0  0  0
  3  4  1  0  0  0  0
  4  5  2  0  0  0  0
  5 22  1  0  0  0  0
  6  5  1  0  0  0  0
  7  6  2  0  0  0  0
  8  7  1  0  0  0  0
  8  3  2  0  0  0  0
  9  1  1  0  0  0  0
  9  8  1  0  0  0  0
 11 10  1  0  0  0  0
 12 11  1  0  0  0  0
 13 14  1  0  0  0  0
 13 12  2  0  0  0  0
 14 15  2  0  0  0  0
 15 11  1  0  0  0  0
 15  1  1  0  0  0  0
 16 21  1  0  0  0  0
 16  9  1  0  0  0  0
 17 16  1  0  0  0  0
 18 19  1  0  0  0  0
 18 17  1  0  0  0  0
 19 20  1  0  0  0  0
 20 21  1  0  0  0  0
 22 23  1  0  0  0  0
 24 22  2  0  0  0  0
M  END
>  <minimizedAffinity>
-6.58320236

$$$$

 OpenBabel09122218043D

 24 27  0  0  0  0  0  0  0  0999 V2000
    4.5260   -5.7210    2.3870 C   0  0  0  0  0  0  0  0  0  0  0  0
    4.2330   -4.4520    2.5650 N   0  0  0  0  0  0  0  0  0  0  0  0
    3.8460   -4.3350    3.8740 C   0  0  0  0  0  0  0  0  0  0  0  0
    3.4500   -3.1920    4.5870 C   0  0  0  0  0  3  0  0  0  0  0  0
    3.0780   -3.3010    5.9410 C   0  0  0  0  0  0  0  0  0  0  0  0
    3.1180   -4.5650    6.5520 C   0  0  0  0  0  3  0  0  0  0  0  0
    3.5100   -5.7180    5.8590 C   0  0  0  0  0  3  0  0  0  0  0  0
    3.8680   -5.5740    4.5130 C   0  0  0  0  0  0  0  0  0  0  0  0
    4.2740   -6.4580    3.5300 N   0  0  0  0  0  0  0  0  0  0  0  0
    7.3340   -5.3420    1.3730 C   0  0  0  0  0  1  0  0  0  0  0  0
    6.2820   -6.0520    0.6760 N   0  0  0  0  0  0  0  0  0  0  0  0
    6.4220   -6.6410   -0.5560 C   0  0  0  0  0  3  0  0  0  0  0  0
    5.2260   -7.2380   -0.8830 C   0  0  0  0  0  3  0  0  0  0  0  0
    4.3290   -6.9880    0.1840 C   0  0  0  0  0  3  0  0  0  0  0  0
    4.9930   -6.2250    1.1300 C   0  0  0  0  0  0  0  0  0  0  0  0
    4.3350   -7.9120    3.6420 C   0  0  0  0  0  3  0  0  0  0  0  0
    3.1070   -8.6070    3.0360 C   0  0  0  0  0  2  0  0  0  0  0  0
    3.1790  -10.1220    3.2230 C   0  0  0  0  0  2  0  0  0  0  0  0
    4.4880  -10.6980    2.6860 C   0  0  0  0  0  2  0  0  0  0  0  0
    5.7020  -10.0130    3.3060 C   0  0  0  0  0  2  0  0  0  0  0  0
    5.6550   -8.4990    3.1120 C   0  0  0  0  0  2  0  0  0  0  0  0
    2.6400   -2.0790    6.7250 C   0  0  0  0  0  0  0  0  0  0  0  0
    3.0730   -1.9640    7.9140 O   0  0  0  0  0  1  0  0  0  0  0  0
    1.8750   -1.2550    6.1300 O   0  0  0  0  0  0  0  0  0  0  0  0
  1  2  2  0  0  0  0
  1  9  1  0  0  0  0
  2  3  1  0  0  0  0
  3  8  2  0  0  0  0
  3  4  1  0  0  0  0
  4  5  2  0  0  0  0
  5  6  1  0  0  0  0
  5 22  1  0  0  0  0
  7  6  2  0  0  0  0
  8  7  1  0  0  0  0
  9 16  1  0  0  0  0
  9  8  1  0  0  0  0
 11 15  1  0  0  0  0
 11 10  1  0  0  0  0
 12 11  1  0  0  0  0
 13 12  2  0  0  0  0
 13 14  1  0  0  0  0
 14 15  2  0  0  0  0
 15  1  1  0  0  0  0
 17 18  1  0  0  0  0
 17 16  1  0  0  0  0
 19 18  1  0  0  0  0
 19 20  1  0  0  0  0
 21 20  1  0  0  0  0
 21 16  1  0  0  0  0
 22 23  1  0  0  0  0
 24 22  2  0  0  0  0
M  END
>  <minimizedAffinity>
-6.55390406

$$$$

 OpenBabel09122218043D

 24 27  0  0  0  0  0  0  0  0999 V2000
    2.5140   -6.4030    5.1010 C   0  0  0  0  0  0  0  0  0  0  0  0
    3.1080   -7.2190    4.2590 N   0  0  0  0  0  0  0  0  0  0  0  0
    4.0590   -6.4690    3.6160 C   0  0  0  0  0  0  0  0  0  0  0  0
    4.9850   -6.8560    2.6350 C   0  0  0  0  0  3  0  0  0  0  0  0
    5.8770   -5.9090    2.0960 C   0  0  0  0  0  0  0  0  0  0  0  0
    5.8190   -4.5860    2.5630 C   0  0  0  0  0  3  0  0  0  0  0  0
    4.9020   -4.1780    3.5420 C   0  0  0  0  0  3  0  0  0  0  0  0
    4.0270   -5.1450    4.0520 C   0  0  0  0  0  0  0  0  0  0  0  0
    3.0040   -5.1160    4.9810 N   0  0  0  0  0  0  0  0  0  0  0  0
    2.9020   -6.9810    8.0290 C   0  0  0  0  0  1  0  0  0  0  0  0
    1.6490   -7.0980    7.3120 N   0  0  0  0  0  0  0  0  0  0  0  0
    0.4640   -7.5040    7.8740 C   0  0  0  0  0  3  0  0  0  0  0  0
   -0.5060   -7.4670    6.8980 C   0  0  0  0  0  3  0  0  0  0  0  0
    0.1200   -7.0380    5.7030 C   0  0  0  0  0  3  0  0  0  0  0  0
    1.4640   -6.8420    5.9710 C   0  0  0  0  0  0  0  0  0  0  0  0
    2.4680   -3.9310    5.6450 C   0  0  0  0  0  3  0  0  0  0  0  0
    3.3190   -3.4840    6.8430 C   0  0  0  0  0  2  0  0  0  0  0  0
    2.6960   -2.2790    7.5460 C   0  0  0  0  0  2  0  0  0  0  0  0
    2.4270   -1.1320    6.5750 C   0  0  0  0  0  2  0  0  0  0  0  0
    1.5670   -1.5810    5.3970 C   0  0  0  0  0  2  0  0  0  0  0  0
    2.1840   -2.7740    4.6710 C   0  0  0  0  0  2  0  0  0  0  0  0
    6.8790   -6.3070    1.0300 C   0  0  0  0  0  0  0  0  0  0  0  0
    6.7110   -5.8280   -0.1350 O   0  0  0  0  0  0  0  0  0  0  0  0
    7.8170   -7.0900    1.3830 O   0  0  0  0  0  1  0  0  0  0  0  0
  1 15  1  0  0  0  0
  2  1  2  0  0  0  0
  3  8  1  0  0  0  0
  3  2  1  0  0  0  0
  4  3  2  0  0  0  0
  5  6  2  0  0  0  0
  5  4  1  0  0  0  0
  6  7  1  0  0  0  0
  7  8  2  0  0  0  0
  8  9  1  0  0  0  0
  9  1  1  0  0  0  0
  9 16  1  0  0  0  0
 11 12  1  0  0  0  0
 11 10  1  0  0  0  0
 13 12  2  0  0  0  0
 14 15  2  0  0  0  0
 14 13  1  0  0  0  0
 15 11  1  0  0  0  0
 16 17  1  0  0  0  0
 17 18  1  0  0  0  0
 19 18  1  0  0  0  0
 20 19  1  0  0  0  0
 21 20  1  0  0  0  0
 21 16  1  0  0  0  0
 22 24  1  0  0  0  0
 22  5  1  0  0  0  0
 23 22  2  0  0  0  0
M  END
>  <minimizedAffinity>
-6.52598286

$$$$

 OpenBabel09122218043D

 24 27  0  0  0  0  0  0  0  0999 V2000
    5.3400  -10.1410    3.9340 C   0  0  0  0  0  0  0  0  0  0  0  0
    6.2610   -9.2150    3.7820 N   0  0  0  0  0  0  0  0  0  0  0  0
    5.9630   -8.5780    2.6050 C   0  0  0  0  0  0  0  0  0  0  0  0
    6.6160   -7.5000    1.9870 C   0  0  0  0  0  3  0  0  0  0  0  0
    6.1410   -7.0010    0.7580 C   0  0  0  0  0  0  0  0  0  0  0  0
    5.0100   -7.6000    0.1790 C   0  0  0  0  0  3  0  0  0  0  0  0
    4.3440   -8.6770    0.7790 C   0  0  0  0  0  3  0  0  0  0  0  0
    4.8470   -9.1500    1.9980 C   0  0  0  0  0  0  0  0  0  0  0  0
    4.4820  -10.1760    2.8500 N   0  0  0  0  0  0  0  0  0  0  0  0
    3.8280   -9.5280    6.4630 C   0  0  0  0  0  1  0  0  0  0  0  0
    4.6140  -10.7220    6.2270 N   0  0  0  0  0  0  0  0  0  0  0  0
    4.7860  -11.7340    7.1370 C   0  0  0  0  0  3  0  0  0  0  0  0
    5.5670  -12.7060    6.5520 C   0  0  0  0  0  3  0  0  0  0  0  0
    5.8890  -12.2540    5.2490 C   0  0  0  0  0  3  0  0  0  0  0  0
    5.3140  -11.0070    5.0750 C   0  0  0  0  0  0  0  0  0  0  0  0
    3.4460  -11.1760    2.6110 C   0  0  0  0  0  3  0  0  0  0  0  0
    2.0360  -10.5700    2.5500 C   0  0  0  0  0  2  0  0  0  0  0  0
    0.9750  -11.6530    2.3570 C   0  0  0  0  0  2  0  0  0  0  0  0
    1.2740  -12.5300    1.1440 C   0  0  0  0  0  2  0  0  0  0  0  0
    2.6710  -13.1420    1.2220 C   0  0  0  0  0  2  0  0  0  0  0  0
    3.7450  -12.0710    1.3960 C   0  0  0  0  0  2  0  0  0  0  0  0
    6.8370   -5.8430    0.0720 C   0  0  0  0  0  0  0  0  0  0  0  0
    6.5230   -5.6080   -1.1370 O   0  0  0  0  0  0  0  0  0  0  0  0
    7.6830   -5.1870    0.7600 O   0  0  0  0  0  1  0  0  0  0  0  0
  1 15  1  0  0  0  0
  2  1  2  0  0  0  0
  3  2  1  0  0  0  0
  4  3  2  0  0  0  0
  5  4  1  0  0  0  0
  6  5  2  0  0  0  0
  6  7  1  0  0  0  0
  7  8  2  0  0  0  0
  8  3  1  0  0  0  0
  8  9  1  0  0  0  0
  9  1  1  0  0  0  0
 11 10  1  0  0  0  0
 11 12  1  0  0  0  0
 13 12  2  0  0  0  0
 14 13  1  0  0  0  0
 15 14  2  0  0  0  0
 15 11  1  0  0  0  0
 16  9  1  0  0  0  0
 17 16  1  0  0  0  0
 18 17  1  0  0  0  0
 19 20  1  0  0  0  0
 19 18  1  0  0  0  0
 20 21  1  0  0  0  0
 21 16  1  0  0  0  0
 22  5  1  0  0  0  0
 22 24  1  0  0  0  0
 23 22  2  0  0  0  0
M  END
>  <minimizedAffinity>
-6.48707199

$$$$

 OpenBabel09122218043D

 24 27  0  0  0  0  0  0  0  0999 V2000
    5.0210   -9.8840    4.1810 C   0  0  0  0  0  0  0  0  0  0  0  0
    5.9300   -9.7520    3.2410 N   0  0  0  0  0  0  0  0  0  0  0  0
    5.7360   -8.5050    2.7040 C   0  0  0  0  0  0  0  0  0  0  0  0
    6.4480   -7.8550    1.6840 C   0  0  0  0  0  3  0  0  0  0  0  0
    6.0680   -6.5620    1.2750 C   0  0  0  0  0  0  0  0  0  0  0  0
    4.9770   -5.9470    1.9110 C   0  0  0  0  0  3  0  0  0  0  0  0
    4.2530   -6.5780    2.9310 C   0  0  0  0  0  3  0  0  0  0  0  0
    4.6550   -7.8650    3.3090 C   0  0  0  0  0  0  0  0  0  0  0  0
    4.1870   -8.7820    4.2310 N   0  0  0  0  0  0  0  0  0  0  0  0
    3.4360  -12.3180    3.3900 C   0  0  0  0  0  1  0  0  0  0  0  0
    4.2020  -12.1790    4.6120 N   0  0  0  0  0  0  0  0  0  0  0  0
    4.2980  -13.1420    5.5850 C   0  0  0  0  0  3  0  0  0  0  0  0
    5.1270  -12.6660    6.5760 C   0  0  0  0  0  3  0  0  0  0  0  0
    5.5320  -11.3650    6.1920 C   0  0  0  0  0  3  0  0  0  0  0  0
    4.9250  -11.0670    4.9840 C   0  0  0  0  0  0  0  0  0  0  0  0
    2.9800   -8.6590    5.0420 C   0  0  0  0  0  3  0  0  0  0  0  0
    2.9140   -7.3330    5.8140 C   0  0  0  0  0  2  0  0  0  0  0  0
    1.6670   -7.2650    6.6950 C   0  0  0  0  0  2  0  0  0  0  0  0
    0.3930   -7.5260    5.8950 C   0  0  0  0  0  2  0  0  0  0  0  0
    0.4600   -8.8540    5.1450 C   0  0  0  0  0  2  0  0  0  0  0  0
    1.6920   -8.9310    4.2460 C   0  0  0  0  0  2  0  0  0  0  0  0
    6.8200   -5.8470    0.1690 C   0  0  0  0  0  0  0  0  0  0  0  0
    6.3960   -6.0030   -1.0180 O   0  0  0  0  0  0  0  0  0  0  0  0
    7.8180   -5.1380    0.5140 O   0  0  0  0  0  1  0  0  0  0  0  0
  1  9  1  0  0  0  0
  1 15  1  0  0  0  0
  2  1  2  0  0  0  0
  3  2  1  0  0  0  0
  3  8  1  0  0  0  0
  4  3  2  0  0  0  0
  5  4  1  0  0  0  0
  5  6  2  0  0  0  0
  6  7  1  0  0  0  0
  7  8  2  0  0  0  0
  8  9  1  0  0  0  0
  9 16  1  0  0  0  0
 10 11  1  0  0  0  0
 11 15  1  0  0  0  0
 11 12  1  0  0  0  0
 12 13  2  0  0  0  0
 14 13  1  0  0  0  0
 15 14  2  0  0  0  0
 16 17  1  0  0  0  0
 17 18  1  0  0  0  0
 19 18  1  0  0  0  0
 20 19  1  0  0  0  0
 21 16  1  0  0  0  0
 21 20  1  0  0  0  0
 22 24  1  0  0  0  0
 22  5  1  0  0  0  0
 23 22  2  0  0  0  0
M  END
>  <minimizedAffinity>
-6.22328472

$$$$

 OpenBabel09122218043D

 24 27  0  0  0  0  0  0  0  0999 V2000
    3.1430  -10.3030    2.3710 C   0  0  0  0  0  0  0  0  0  0  0  0
    2.3890  -10.5340    3.4220 N   0  0  0  0  0  0  0  0  0  0  0  0
    2.3840   -9.3690    4.1440 C   0  0  0  0  0  0  0  0  0  0  0  0
    1.7180   -9.0670    5.3430 C   0  0  0  0  0  3  0  0  0  0  0  0
    1.8600   -7.7930    5.9250 C   0  0  0  0  0  0  0  0  0  0  0  0
    2.6710   -6.8440    5.2810 C   0  0  0  0  0  3  0  0  0  0  0  0
    3.3440   -7.1240    4.0850 C   0  0  0  0  0  3  0  0  0  0  0  0
    3.1840   -8.4030    3.5370 C   0  0  0  0  0  0  0  0  0  0  0  0
    3.6910   -9.0350    2.4160 N   0  0  0  0  0  0  0  0  0  0  0  0
    4.9960  -12.6480    2.7280 C   0  0  0  0  0  1  0  0  0  0  0  0
    4.2160  -12.3720    1.5390 N   0  0  0  0  0  0  0  0  0  0  0  0
    4.2270  -13.1420    0.4030 C   0  0  0  0  0  3  0  0  0  0  0  0
    3.3470  -12.5870   -0.4980 C   0  0  0  0  0  3  0  0  0  0  0  0
    2.7980  -11.4330    0.1120 C   0  0  0  0  0  3  0  0  0  0  0  0
    3.3700  -11.2980    1.3650 C   0  0  0  0  0  0  0  0  0  0  0  0
    4.6950   -8.5030    1.5000 C   0  0  0  0  0  3  0  0  0  0  0  0
    4.1000   -7.5510    0.4520 C   0  0  0  0  0  2  0  0  0  0  0  0
    5.1700   -7.0610   -0.5230 C   0  0  0  0  0  2  0  0  0  0  0  0
    6.3600   -6.4410    0.2050 C   0  0  0  0  0  2  0  0  0  0  0  0
    6.9550   -7.4000    1.2320 C   0  0  0  0  0  2  0  0  0  0  0  0
    5.9030   -7.8850    2.2260 C   0  0  0  0  0  2  0  0  0  0  0  0
    1.1550   -7.4510    7.2230 C   0  0  0  0  0  0  0  0  0  0  0  0
   -0.0890   -7.2010    7.1620 O   0  0  0  0  0  0  0  0  0  0  0  0
    1.8620   -7.4450    8.2800 O   0  0  0  0  0  1  0  0  0  0  0  0
  1  9  1  0  0  0  0
  1  2  2  0  0  0  0
  2  3  1  0  0  0  0
  3  4  1  0  0  0  0
  4  5  2  0  0  0  0
  5 22  1  0  0  0  0
  6  5  1  0  0  0  0
  7  6  2  0  0  0  0
  8  7  1  0  0  0  0
  8  3  2  0  0  0  0
  9  8  1  0  0  0  0
 11 10  1  0  0  0  0
 12 11  1  0  0  0  0
 13 14  1  0  0  0  0
 13 12  2  0  0  0  0
 14 15  2  0  0  0  0
 15 11  1  0  0  0  0
 15  1  1  0  0  0  0
 16 21  1  0  0  0  0
 16  9  1  0  0  0  0
 17 16  1  0  0  0  0
 18 19  1  0  0  0  0
 18 17  1  0  0  0  0
 19 20  1  0  0  0  0
 20 21  1  0  0  0  0
 22 24  1  0  0  0  0
 23 22  2  0  0  0  0
M  END
>  <minimizedAffinity>
-6.11449003

$$$$

 OpenBabel09122218043D

 24 27  0  0  0  0  0  0  0  0999 V2000
    3.8910   -6.7850    4.3010 C   0  0  0  0  0  0  0  0  0  0  0  0
    3.6790   -7.6040    5.3070 N   0  0  0  0  0  0  0  0  0  0  0  0
    4.2130   -8.8090    4.9300 C   0  0  0  0  0  0  0  0  0  0  0  0
    4.2750  -10.0170    5.6430 C   0  0  0  0  0  3  0  0  0  0  0  0
    4.8670  -11.1510    5.0540 C   0  0  0  0  0  0  0  0  0  0  0  0
    5.3900  -11.0420    3.7560 C   0  0  0  0  0  3  0  0  0  0  0  0
    5.3390   -9.8460    3.0270 C   0  0  0  0  0  3  0  0  0  0  0  0
    4.7380   -8.7390    3.6410 C   0  0  0  0  0  0  0  0  0  0  0  0
    4.4910   -7.4400    3.2400 N   0  0  0  0  0  0  0  0  0  0  0  0
    1.1800   -5.8730    5.2370 C   0  0  0  0  0  1  0  0  0  0  0  0
    2.2420   -5.0030    4.7750 N   0  0  0  0  0  0  0  0  0  0  0  0
    2.1480   -3.6360    4.6890 C   0  0  0  0  0  3  0  0  0  0  0  0
    3.3550   -3.1530    4.2360 C   0  0  0  0  0  3  0  0  0  0  0  0
    4.2000   -4.2700    4.0270 C   0  0  0  0  0  3  0  0  0  0  0  0
    3.4830   -5.4120    4.3390 C   0  0  0  0  0  0  0  0  0  0  0  0
    4.7260   -6.8810    1.9130 C   0  0  0  0  0  3  0  0  0  0  0  0
    6.2140   -6.6330    1.6260 C   0  0  0  0  0  2  0  0  0  0  0  0
    6.4150   -5.9950    0.2520 C   0  0  0  0  0  2  0  0  0  0  0  0
    5.7460   -6.8070   -0.8540 C   0  0  0  0  0  2  0  0  0  0  0  0
    4.2640   -7.0340   -0.5690 C   0  0  0  0  0  2  0  0  0  0  0  0
    4.0460   -7.6880    0.7930 C   0  0  0  0  0  2  0  0  0  0  0  0
    4.9360  -12.4670    5.8060 C   0  0  0  0  0  0  0  0  0  0  0  0
    3.8350  -13.0360    6.0850 O   0  0  0  0  0  0  0  0  0  0  0  0
    6.0940  -12.9060    6.0960 O   0  0  0  0  0  1  0  0  0  0  0  0
  1 15  1  0  0  0  0
  1  2  2  0  0  0  0
  3  2  1  0  0  0  0
  3  4  1  0  0  0  0
  5  4  2  0  0  0  0
  5 22  1  0  0  0  0
  6  5  1  0  0  0  0
  7  8  1  0  0  0  0
  7  6  2  0  0  0  0
  8  3  2  0  0  0  0
  9  8  1  0  0  0  0
  9  1  1  0  0  0  0
 11 10  1  0  0  0  0
 12 11  1  0  0  0  0
 13 12  2  0  0  0  0
 14 13  1  0  0  0  0
 14 15  2  0  0  0  0
 15 11  1  0  0  0  0
 16  9  1  0  0  0  0
 17 16  1  0  0  0  0
 18 17  1  0  0  0  0
 19 20  1  0  0  0  0
 19 18  1  0  0  0  0
 20 21  1  0  0  0  0
 21 16  1  0  0  0  0
 22 23  2  0  0  0  0
 22 24  1  0  0  0  0
M  END
>  <minimizedAffinity>
-6.05396032

$$$$

 OpenBabel09122218043D

 24 27  0  0  0  0  0  0  0  0999 V2000
    3.5950   -4.0230    5.3280 C   0  0  0  0  0  0  0  0  0  0  0  0
    4.5600   -3.8750    4.4480 N   0  0  0  0  0  0  0  0  0  0  0  0
    4.6780   -5.0850    3.8130 C   0  0  0  0  0  0  0  0  0  0  0  0
    5.5430   -5.4650    2.7750 C   0  0  0  0  0  3  0  0  0  0  0  0
    5.5020   -6.7790    2.2700 C   0  0  0  0  0  0  0  0  0  0  0  0
    4.5820   -7.6850    2.8230 C   0  0  0  0  0  3  0  0  0  0  0  0
    3.7100   -7.3270    3.8600 C   0  0  0  0  0  3  0  0  0  0  0  0
    3.7820   -6.0130    4.3410 C   0  0  0  0  0  0  0  0  0  0  0  0
    3.1190   -5.3210    5.3370 N   0  0  0  0  0  0  0  0  0  0  0  0
    1.5540   -1.9620    4.5230 C   0  0  0  0  0  1  0  0  0  0  0  0
    2.2300   -2.0140    5.8030 N   0  0  0  0  0  0  0  0  0  0  0  0
    2.0390   -1.1150    6.8230 C   0  0  0  0  0  3  0  0  0  0  0  0
    2.8290   -1.4990    7.8830 C   0  0  0  0  0  3  0  0  0  0  0  0
    3.5310   -2.6610    7.4820 C   0  0  0  0  0  3  0  0  0  0  0  0
    3.1700   -2.9500    6.1770 C   0  0  0  0  0  0  0  0  0  0  0  0
    2.1630   -5.8750    6.2910 C   0  0  0  0  0  3  0  0  0  0  0  0
    1.0220   -6.6450    5.6100 C   0  0  0  0  0  2  0  0  0  0  0  0
    0.0120   -7.1600    6.6350 C   0  0  0  0  0  2  0  0  0  0  0  0
    0.6860   -7.9830    7.7310 C   0  0  0  0  0  2  0  0  0  0  0  0
    1.8070   -7.2040    8.4130 C   0  0  0  0  0  2  0  0  0  0  0  0
    2.8350   -6.6980    7.4040 C   0  0  0  0  0  2  0  0  0  0  0  0
    6.4340   -7.2100    1.1550 C   0  0  0  0  0  0  0  0  0  0  0  0
    7.6780   -7.2210    1.4080 O   0  0  0  0  0  1  0  0  0  0  0  0
    5.8980   -7.5330    0.0470 O   0  0  0  0  0  0  0  0  0  0  0  0
  1  9  1  0  0  0  0
  1 15  1  0  0  0  0
  2  1  2  0  0  0  0
  3  8  1  0  0  0  0
  3  2  1  0  0  0  0
  4  3  2  0  0  0  0
  5  4  1  0  0  0  0
  5  6  2  0  0  0  0
  6  7  1  0  0  0  0
  7  8  2  0  0  0  0
  8  9  1  0  0  0  0
  9 16  1  0  0  0  0
 10 11  1  0  0  0  0
 11 15  1  0  0  0  0
 11 12  1  0  0  0  0
 12 13  2  0  0  0  0
 14 13  1  0  0  0  0
 15 14  2  0  0  0  0
 16 21  1  0  0  0  0
 17 16  1  0  0  0  0
 17 18  1  0  0  0  0
 18 19  1  0  0  0  0
 19 20  1  0  0  0  0
 21 20  1  0  0  0  0
 22 23  1  0  0  0  0
 22  5  1  0  0  0  0
 24 22  2  0  0  0  0
M  END
>  <minimizedAffinity>
-5.96372223

$$$$
