
 OpenBabel09122222393D

 24 27  0  0  0  0  0  0  0  0999 V2000
    2.5140   -6.4030    5.1010 C   0  0  0  0  0  0  0  0  0  0  0  0
    3.1080   -7.2190    4.2590 N   0  0  0  0  0  0  0  0  0  0  0  0
    4.0590   -6.4690    3.6160 C   0  0  0  0  0  0  0  0  0  0  0  0
    4.9850   -6.8560    2.6350 C   0  0  0  0  0  3  0  0  0  0  0  0
    5.8770   -5.9090    2.0960 C   0  0  0  0  0  0  0  0  0  0  0  0
    5.8190   -4.5860    2.5630 C   0  0  0  0  0  3  0  0  0  0  0  0
    4.9020   -4.1780    3.5420 C   0  0  0  0  0  3  0  0  0  0  0  0
    4.0270   -5.1450    4.0520 C   0  0  0  0  0  0  0  0  0  0  0  0
    3.0040   -5.1160    4.9810 N   0  0  0  0  0  0  0  0  0  0  0  0
    2.9020   -6.9810    8.0290 C   0  0  0  0  0  1  0  0  0  0  0  0
    1.6490   -7.0980    7.3120 N   0  0  0  0  0  0  0  0  0  0  0  0
    0.4640   -7.5040    7.8740 C   0  0  0  0  0  3  0  0  0  0  0  0
   -0.5060   -7.4670    6.8980 C   0  0  0  0  0  3  0  0  0  0  0  0
    0.1200   -7.0380    5.7030 C   0  0  0  0  0  3  0  0  0  0  0  0
    1.4640   -6.8420    5.9710 C   0  0  0  0  0  0  0  0  0  0  0  0
    2.4680   -3.9310    5.6450 C   0  0  0  0  0  3  0  0  0  0  0  0
    3.3190   -3.4840    6.8430 C   0  0  0  0  0  2  0  0  0  0  0  0
    2.6960   -2.2790    7.5460 C   0  0  0  0  0  2  0  0  0  0  0  0
    2.4270   -1.1320    6.5750 C   0  0  0  0  0  2  0  0  0  0  0  0
    1.5670   -1.5810    5.3970 C   0  0  0  0  0  2  0  0  0  0  0  0
    2.1840   -2.7740    4.6710 C   0  0  0  0  0  2  0  0  0  0  0  0
    6.8790   -6.3070    1.0300 C   0  0  0  0  0  0  0  0  0  0  0  0
    6.7110   -5.8280   -0.1350 O   0  0  0  0  0  0  0  0  0  0  0  0
    7.8170   -7.0900    1.3830 O   0  0  0  0  0  1  0  0  0  0  0  0
  1 15  1  0  0  0  0
  2  1  2  0  0  0  0
  3  8  1  0  0  0  0
  3  2  1  0  0  0  0
  4  3  2  0  0  0  0
  5  6  2  0  0  0  0
  5  4  1  0  0  0  0
  6  7  1  0  0  0  0
  7  8  2  0  0  0  0
  8  9  1  0  0  0  0
  9  1  1  0  0  0  0
  9 16  1  0  0  0  0
 11 12  1  0  0  0  0
 11 10  1  0  0  0  0
 13 12  2  0  0  0  0
 14 15  2  0  0  0  0
 14 13  1  0  0  0  0
 15 11  1  0  0  0  0
 16 17  1  0  0  0  0
 17 18  1  0  0  0  0
 19 18  1  0  0  0  0
 20 19  1  0  0  0  0
 21 20  1  0  0  0  0
 21 16  1  0  0  0  0
 22 24  1  0  0  0  0
 22  5  1  0  0  0  0
 23 22  2  0  0  0  0
M  END
>  <minimizedAffinity>
-6.52598286

$$$$
