
 OpenBabel09122222393D

 24 27  0  0  0  0  0  0  0  0999 V2000
    3.1430  -10.3030    2.3710 C   0  0  0  0  0  0  0  0  0  0  0  0
    2.3890  -10.5340    3.4220 N   0  0  0  0  0  0  0  0  0  0  0  0
    2.3840   -9.3690    4.1440 C   0  0  0  0  0  0  0  0  0  0  0  0
    1.7180   -9.0670    5.3430 C   0  0  0  0  0  3  0  0  0  0  0  0
    1.8600   -7.7930    5.9250 C   0  0  0  0  0  0  0  0  0  0  0  0
    2.6710   -6.8440    5.2810 C   0  0  0  0  0  3  0  0  0  0  0  0
    3.3440   -7.1240    4.0850 C   0  0  0  0  0  3  0  0  0  0  0  0
    3.1840   -8.4030    3.5370 C   0  0  0  0  0  0  0  0  0  0  0  0
    3.6910   -9.0350    2.4160 N   0  0  0  0  0  0  0  0  0  0  0  0
    4.9960  -12.6480    2.7280 C   0  0  0  0  0  1  0  0  0  0  0  0
    4.2160  -12.3720    1.5390 N   0  0  0  0  0  0  0  0  0  0  0  0
    4.2270  -13.1420    0.4030 C   0  0  0  0  0  3  0  0  0  0  0  0
    3.3470  -12.5870   -0.4980 C   0  0  0  0  0  3  0  0  0  0  0  0
    2.7980  -11.4330    0.1120 C   0  0  0  0  0  3  0  0  0  0  0  0
    3.3700  -11.2980    1.3650 C   0  0  0  0  0  0  0  0  0  0  0  0
    4.6950   -8.5030    1.5000 C   0  0  0  0  0  3  0  0  0  0  0  0
    4.1000   -7.5510    0.4520 C   0  0  0  0  0  2  0  0  0  0  0  0
    5.1700   -7.0610   -0.5230 C   0  0  0  0  0  2  0  0  0  0  0  0
    6.3600   -6.4410    0.2050 C   0  0  0  0  0  2  0  0  0  0  0  0
    6.9550   -7.4000    1.2320 C   0  0  0  0  0  2  0  0  0  0  0  0
    5.9030   -7.8850    2.2260 C   0  0  0  0  0  2  0  0  0  0  0  0
    1.1550   -7.4510    7.2230 C   0  0  0  0  0  0  0  0  0  0  0  0
   -0.0890   -7.2010    7.1620 O   0  0  0  0  0  0  0  0  0  0  0  0
    1.8620   -7.4450    8.2800 O   0  0  0  0  0  1  0  0  0  0  0  0
  1  9  1  0  0  0  0
  1  2  2  0  0  0  0
  2  3  1  0  0  0  0
  3  4  1  0  0  0  0
  4  5  2  0  0  0  0
  5 22  1  0  0  0  0
  6  5  1  0  0  0  0
  7  6  2  0  0  0  0
  8  7  1  0  0  0  0
  8  3  2  0  0  0  0
  9  8  1  0  0  0  0
 11 10  1  0  0  0  0
 12 11  1  0  0  0  0
 13 14  1  0  0  0  0
 13 12  2  0  0  0  0
 14 15  2  0  0  0  0
 15 11  1  0  0  0  0
 15  1  1  0  0  0  0
 16 21  1  0  0  0  0
 16  9  1  0  0  0  0
 17 16  1  0  0  0  0
 18 19  1  0  0  0  0
 18 17  1  0  0  0  0
 19 20  1  0  0  0  0
 20 21  1  0  0  0  0
 22 24  1  0  0  0  0
 23 22  2  0  0  0  0
M  END
>  <minimizedAffinity>
-6.11449003

$$$$
