
 OpenBabel09122222393D

 24 27  0  0  0  0  0  0  0  0999 V2000
    5.3400  -10.1410    3.9340 C   0  0  0  0  0  0  0  0  0  0  0  0
    6.2610   -9.2150    3.7820 N   0  0  0  0  0  0  0  0  0  0  0  0
    5.9630   -8.5780    2.6050 C   0  0  0  0  0  0  0  0  0  0  0  0
    6.6160   -7.5000    1.9870 C   0  0  0  0  0  3  0  0  0  0  0  0
    6.1410   -7.0010    0.7580 C   0  0  0  0  0  0  0  0  0  0  0  0
    5.0100   -7.6000    0.1790 C   0  0  0  0  0  3  0  0  0  0  0  0
    4.3440   -8.6770    0.7790 C   0  0  0  0  0  3  0  0  0  0  0  0
    4.8470   -9.1500    1.9980 C   0  0  0  0  0  0  0  0  0  0  0  0
    4.4820  -10.1760    2.8500 N   0  0  0  0  0  0  0  0  0  0  0  0
    3.8280   -9.5280    6.4630 C   0  0  0  0  0  1  0  0  0  0  0  0
    4.6140  -10.7220    6.2270 N   0  0  0  0  0  0  0  0  0  0  0  0
    4.7860  -11.7340    7.1370 C   0  0  0  0  0  3  0  0  0  0  0  0
    5.5670  -12.7060    6.5520 C   0  0  0  0  0  3  0  0  0  0  0  0
    5.8890  -12.2540    5.2490 C   0  0  0  0  0  3  0  0  0  0  0  0
    5.3140  -11.0070    5.0750 C   0  0  0  0  0  0  0  0  0  0  0  0
    3.4460  -11.1760    2.6110 C   0  0  0  0  0  3  0  0  0  0  0  0
    2.0360  -10.5700    2.5500 C   0  0  0  0  0  2  0  0  0  0  0  0
    0.9750  -11.6530    2.3570 C   0  0  0  0  0  2  0  0  0  0  0  0
    1.2740  -12.5300    1.1440 C   0  0  0  0  0  2  0  0  0  0  0  0
    2.6710  -13.1420    1.2220 C   0  0  0  0  0  2  0  0  0  0  0  0
    3.7450  -12.0710    1.3960 C   0  0  0  0  0  2  0  0  0  0  0  0
    6.8370   -5.8430    0.0720 C   0  0  0  0  0  0  0  0  0  0  0  0
    6.5230   -5.6080   -1.1370 O   0  0  0  0  0  0  0  0  0  0  0  0
    7.6830   -5.1870    0.7600 O   0  0  0  0  0  1  0  0  0  0  0  0
  1 15  1  0  0  0  0
  2  1  2  0  0  0  0
  3  2  1  0  0  0  0
  4  3  2  0  0  0  0
  5  4  1  0  0  0  0
  6  5  2  0  0  0  0
  6  7  1  0  0  0  0
  7  8  2  0  0  0  0
  8  3  1  0  0  0  0
  8  9  1  0  0  0  0
  9  1  1  0  0  0  0
 11 10  1  0  0  0  0
 11 12  1  0  0  0  0
 13 12  2  0  0  0  0
 14 13  1  0  0  0  0
 15 14  2  0  0  0  0
 15 11  1  0  0  0  0
 16  9  1  0  0  0  0
 17 16  1  0  0  0  0
 18 17  1  0  0  0  0
 19 20  1  0  0  0  0
 19 18  1  0  0  0  0
 20 21  1  0  0  0  0
 21 16  1  0  0  0  0
 22  5  1  0  0  0  0
 22 24  1  0  0  0  0
 23 22  2  0  0  0  0
M  END
>  <minimizedAffinity>
-6.48707199

$$$$
