
 OpenBabel09122222393D

 24 27  0  0  0  0  0  0  0  0999 V2000
    3.8910   -6.7850    4.3010 C   0  0  0  0  0  0  0  0  0  0  0  0
    3.6790   -7.6040    5.3070 N   0  0  0  0  0  0  0  0  0  0  0  0
    4.2130   -8.8090    4.9300 C   0  0  0  0  0  0  0  0  0  0  0  0
    4.2750  -10.0170    5.6430 C   0  0  0  0  0  3  0  0  0  0  0  0
    4.8670  -11.1510    5.0540 C   0  0  0  0  0  0  0  0  0  0  0  0
    5.3900  -11.0420    3.7560 C   0  0  0  0  0  3  0  0  0  0  0  0
    5.3390   -9.8460    3.0270 C   0  0  0  0  0  3  0  0  0  0  0  0
    4.7380   -8.7390    3.6410 C   0  0  0  0  0  0  0  0  0  0  0  0
    4.4910   -7.4400    3.2400 N   0  0  0  0  0  0  0  0  0  0  0  0
    1.1800   -5.8730    5.2370 C   0  0  0  0  0  1  0  0  0  0  0  0
    2.2420   -5.0030    4.7750 N   0  0  0  0  0  0  0  0  0  0  0  0
    2.1480   -3.6360    4.6890 C   0  0  0  0  0  3  0  0  0  0  0  0
    3.3550   -3.1530    4.2360 C   0  0  0  0  0  3  0  0  0  0  0  0
    4.2000   -4.2700    4.0270 C   0  0  0  0  0  3  0  0  0  0  0  0
    3.4830   -5.4120    4.3390 C   0  0  0  0  0  0  0  0  0  0  0  0
    4.7260   -6.8810    1.9130 C   0  0  0  0  0  3  0  0  0  0  0  0
    6.2140   -6.6330    1.6260 C   0  0  0  0  0  2  0  0  0  0  0  0
    6.4150   -5.9950    0.2520 C   0  0  0  0  0  2  0  0  0  0  0  0
    5.7460   -6.8070   -0.8540 C   0  0  0  0  0  2  0  0  0  0  0  0
    4.2640   -7.0340   -0.5690 C   0  0  0  0  0  2  0  0  0  0  0  0
    4.0460   -7.6880    0.7930 C   0  0  0  0  0  2  0  0  0  0  0  0
    4.9360  -12.4670    5.8060 C   0  0  0  0  0  0  0  0  0  0  0  0
    3.8350  -13.0360    6.0850 O   0  0  0  0  0  0  0  0  0  0  0  0
    6.0940  -12.9060    6.0960 O   0  0  0  0  0  1  0  0  0  0  0  0
  1 15  1  0  0  0  0
  1  2  2  0  0  0  0
  3  2  1  0  0  0  0
  3  4  1  0  0  0  0
  5  4  2  0  0  0  0
  5 22  1  0  0  0  0
  6  5  1  0  0  0  0
  7  8  1  0  0  0  0
  7  6  2  0  0  0  0
  8  3  2  0  0  0  0
  9  8  1  0  0  0  0
  9  1  1  0  0  0  0
 11 10  1  0  0  0  0
 12 11  1  0  0  0  0
 13 12  2  0  0  0  0
 14 13  1  0  0  0  0
 14 15  2  0  0  0  0
 15 11  1  0  0  0  0
 16  9  1  0  0  0  0
 17 16  1  0  0  0  0
 18 17  1  0  0  0  0
 19 20  1  0  0  0  0
 19 18  1  0  0  0  0
 20 21  1  0  0  0  0
 21 16  1  0  0  0  0
 22 23  2  0  0  0  0
 22 24  1  0  0  0  0
M  END
>  <minimizedAffinity>
-6.05396032

$$$$
