
 OpenBabel09122222393D

 24 27  0  0  0  0  0  0  0  0999 V2000
    5.0210   -9.8840    4.1810 C   0  0  0  0  0  0  0  0  0  0  0  0
    5.9300   -9.7520    3.2410 N   0  0  0  0  0  0  0  0  0  0  0  0
    5.7360   -8.5050    2.7040 C   0  0  0  0  0  0  0  0  0  0  0  0
    6.4480   -7.8550    1.6840 C   0  0  0  0  0  3  0  0  0  0  0  0
    6.0680   -6.5620    1.2750 C   0  0  0  0  0  0  0  0  0  0  0  0
    4.9770   -5.9470    1.9110 C   0  0  0  0  0  3  0  0  0  0  0  0
    4.2530   -6.5780    2.9310 C   0  0  0  0  0  3  0  0  0  0  0  0
    4.6550   -7.8650    3.3090 C   0  0  0  0  0  0  0  0  0  0  0  0
    4.1870   -8.7820    4.2310 N   0  0  0  0  0  0  0  0  0  0  0  0
    3.4360  -12.3180    3.3900 C   0  0  0  0  0  1  0  0  0  0  0  0
    4.2020  -12.1790    4.6120 N   0  0  0  0  0  0  0  0  0  0  0  0
    4.2980  -13.1420    5.5850 C   0  0  0  0  0  3  0  0  0  0  0  0
    5.1270  -12.6660    6.5760 C   0  0  0  0  0  3  0  0  0  0  0  0
    5.5320  -11.3650    6.1920 C   0  0  0  0  0  3  0  0  0  0  0  0
    4.9250  -11.0670    4.9840 C   0  0  0  0  0  0  0  0  0  0  0  0
    2.9800   -8.6590    5.0420 C   0  0  0  0  0  3  0  0  0  0  0  0
    2.9140   -7.3330    5.8140 C   0  0  0  0  0  2  0  0  0  0  0  0
    1.6670   -7.2650    6.6950 C   0  0  0  0  0  2  0  0  0  0  0  0
    0.3930   -7.5260    5.8950 C   0  0  0  0  0  2  0  0  0  0  0  0
    0.4600   -8.8540    5.1450 C   0  0  0  0  0  2  0  0  0  0  0  0
    1.6920   -8.9310    4.2460 C   0  0  0  0  0  2  0  0  0  0  0  0
    6.8200   -5.8470    0.1690 C   0  0  0  0  0  0  0  0  0  0  0  0
    6.3960   -6.0030   -1.0180 O   0  0  0  0  0  0  0  0  0  0  0  0
    7.8180   -5.1380    0.5140 O   0  0  0  0  0  1  0  0  0  0  0  0
  1  9  1  0  0  0  0
  1 15  1  0  0  0  0
  2  1  2  0  0  0  0
  3  2  1  0  0  0  0
  3  8  1  0  0  0  0
  4  3  2  0  0  0  0
  5  4  1  0  0  0  0
  5  6  2  0  0  0  0
  6  7  1  0  0  0  0
  7  8  2  0  0  0  0
  8  9  1  0  0  0  0
  9 16  1  0  0  0  0
 10 11  1  0  0  0  0
 11 15  1  0  0  0  0
 11 12  1  0  0  0  0
 12 13  2  0  0  0  0
 14 13  1  0  0  0  0
 15 14  2  0  0  0  0
 16 17  1  0  0  0  0
 17 18  1  0  0  0  0
 19 18  1  0  0  0  0
 20 19  1  0  0  0  0
 21 16  1  0  0  0  0
 21 20  1  0  0  0  0
 22 24  1  0  0  0  0
 22  5  1  0  0  0  0
 23 22  2  0  0  0  0
M  END
>  <minimizedAffinity>
-6.22328472

$$$$
