
 OpenBabel09122222393D

 24 27  0  0  0  0  0  0  0  0999 V2000
    4.2950   -7.5860    3.6280 C   0  0  0  0  0  0  0  0  0  0  0  0
    3.6790   -7.1800    4.7160 N   0  0  0  0  0  0  0  0  0  0  0  0
    3.5830   -5.8170    4.6070 C   0  0  0  0  0  0  0  0  0  0  0  0
    2.9960   -4.8920    5.4850 C   0  0  0  0  0  3  0  0  0  0  0  0
    3.0180   -3.5180    5.1780 C   0  0  0  0  0  0  0  0  0  0  0  0
    3.6310   -3.1040    3.9840 C   0  0  0  0  0  3  0  0  0  0  0  0
    4.2230   -4.0090    3.0940 C   0  0  0  0  0  3  0  0  0  0  0  0
    4.1870   -5.3680    3.4330 C   0  0  0  0  0  0  0  0  0  0  0  0
    4.6690   -6.5170    2.8350 N   0  0  0  0  0  0  0  0  0  0  0  0
    2.6100   -9.3130    1.8280 C   0  0  0  0  0  1  0  0  0  0  0  0
    3.7870   -9.7530    2.5470 N   0  0  0  0  0  0  0  0  0  0  0  0
    4.2880  -11.0310    2.5140 C   0  0  0  0  0  3  0  0  0  0  0  0
    5.4220  -11.0650    3.2940 C   0  0  0  0  0  3  0  0  0  0  0  0
    5.6010   -9.7660    3.8280 C   0  0  0  0  0  3  0  0  0  0  0  0
    4.5600   -8.9720    3.3770 C   0  0  0  0  0  0  0  0  0  0  0  0
    5.5030   -6.5890    1.6400 C   0  0  0  0  0  3  0  0  0  0  0  0
    4.6860   -6.5440    0.3400 C   0  0  0  0  0  2  0  0  0  0  0  0
    5.5880   -6.6800   -0.8870 C   0  0  0  0  0  2  0  0  0  0  0  0
    6.7130   -5.6480   -0.8810 C   0  0  0  0  0  2  0  0  0  0  0  0
    7.5300   -5.7120    0.4070 C   0  0  0  0  0  2  0  0  0  0  0  0
    6.6460   -5.5590    1.6430 C   0  0  0  0  0  2  0  0  0  0  0  0
    2.3960   -2.5040    6.1180 C   0  0  0  0  0  0  0  0  0  0  0  0
    1.7070   -1.5730    5.5970 O   0  0  0  0  0  0  0  0  0  0  0  0
    2.6080   -2.6640    7.3620 O   0  0  0  0  0  1  0  0  0  0  0  0
  1  2  2  0  0  0  0
  3  2  1  0  0  0  0
  3  4  1  0  0  0  0
  5  4  2  0  0  0  0
  5 22  1  0  0  0  0
  6  5  1  0  0  0  0
  7  8  1  0  0  0  0
  7  6  2  0  0  0  0
  8  3  2  0  0  0  0
  9  8  1  0  0  0  0
  9  1  1  0  0  0  0
 10 11  1  0  0  0  0
 11 15  1  0  0  0  0
 12 11  1  0  0  0  0
 12 13  2  0  0  0  0
 13 14  1  0  0  0  0
 15  1  1  0  0  0  0
 15 14  2  0  0  0  0
 16 21  1  0  0  0  0
 16  9  1  0  0  0  0
 17 16  1  0  0  0  0
 18 19  1  0  0  0  0
 18 17  1  0  0  0  0
 19 20  1  0  0  0  0
 20 21  1  0  0  0  0
 22 24  1  0  0  0  0
 23 22  2  0  0  0  0
M  END
>  <minimizedAffinity>
-7.57300043

$$$$
