
 OpenBabel09122222393D

 24 27  0  0  0  0  0  0  0  0999 V2000
    3.5950   -4.0230    5.3280 C   0  0  0  0  0  0  0  0  0  0  0  0
    4.5600   -3.8750    4.4480 N   0  0  0  0  0  0  0  0  0  0  0  0
    4.6780   -5.0850    3.8130 C   0  0  0  0  0  0  0  0  0  0  0  0
    5.5430   -5.4650    2.7750 C   0  0  0  0  0  3  0  0  0  0  0  0
    5.5020   -6.7790    2.2700 C   0  0  0  0  0  0  0  0  0  0  0  0
    4.5820   -7.6850    2.8230 C   0  0  0  0  0  3  0  0  0  0  0  0
    3.7100   -7.3270    3.8600 C   0  0  0  0  0  3  0  0  0  0  0  0
    3.7820   -6.0130    4.3410 C   0  0  0  0  0  0  0  0  0  0  0  0
    3.1190   -5.3210    5.3370 N   0  0  0  0  0  0  0  0  0  0  0  0
    1.5540   -1.9620    4.5230 C   0  0  0  0  0  1  0  0  0  0  0  0
    2.2300   -2.0140    5.8030 N   0  0  0  0  0  0  0  0  0  0  0  0
    2.0390   -1.1150    6.8230 C   0  0  0  0  0  3  0  0  0  0  0  0
    2.8290   -1.4990    7.8830 C   0  0  0  0  0  3  0  0  0  0  0  0
    3.5310   -2.6610    7.4820 C   0  0  0  0  0  3  0  0  0  0  0  0
    3.1700   -2.9500    6.1770 C   0  0  0  0  0  0  0  0  0  0  0  0
    2.1630   -5.8750    6.2910 C   0  0  0  0  0  3  0  0  0  0  0  0
    1.0220   -6.6450    5.6100 C   0  0  0  0  0  2  0  0  0  0  0  0
    0.0120   -7.1600    6.6350 C   0  0  0  0  0  2  0  0  0  0  0  0
    0.6860   -7.9830    7.7310 C   0  0  0  0  0  2  0  0  0  0  0  0
    1.8070   -7.2040    8.4130 C   0  0  0  0  0  2  0  0  0  0  0  0
    2.8350   -6.6980    7.4040 C   0  0  0  0  0  2  0  0  0  0  0  0
    6.4340   -7.2100    1.1550 C   0  0  0  0  0  0  0  0  0  0  0  0
    7.6780   -7.2210    1.4080 O   0  0  0  0  0  1  0  0  0  0  0  0
    5.8980   -7.5330    0.0470 O   0  0  0  0  0  0  0  0  0  0  0  0
  1  9  1  0  0  0  0
  1 15  1  0  0  0  0
  2  1  2  0  0  0  0
  3  8  1  0  0  0  0
  3  2  1  0  0  0  0
  4  3  2  0  0  0  0
  5  4  1  0  0  0  0
  5  6  2  0  0  0  0
  6  7  1  0  0  0  0
  7  8  2  0  0  0  0
  8  9  1  0  0  0  0
  9 16  1  0  0  0  0
 10 11  1  0  0  0  0
 11 15  1  0  0  0  0
 11 12  1  0  0  0  0
 12 13  2  0  0  0  0
 14 13  1  0  0  0  0
 15 14  2  0  0  0  0
 16 21  1  0  0  0  0
 17 16  1  0  0  0  0
 17 18  1  0  0  0  0
 18 19  1  0  0  0  0
 19 20  1  0  0  0  0
 21 20  1  0  0  0  0
 22 23  1  0  0  0  0
 22  5  1  0  0  0  0
 24 22  2  0  0  0  0
M  END
>  <minimizedAffinity>
-5.96372223

$$$$
