
 OpenBabel09122222393D

 50 56  0  0  1  0  0  0  0  0999 V2000
    9.7430   -5.1460   11.1590 C   0  0  0  0  0  0  0  0  0  0  0  0
    8.7360   -5.7320   11.9330 C   0  0  0  0  0  3  0  0  0  0  0  0
    7.3890   -5.4810   11.6510 C   0  0  0  0  0  3  0  0  0  0  0  0
    7.0210   -4.6260   10.6090 C   0  0  0  0  0  0  0  0  0  0  0  0
    8.0170   -4.0230    9.8480 C   0  0  0  0  0  3  0  0  0  0  0  0
    9.3610   -4.2810   10.1300 C   0  0  0  0  0  0  0  0  0  0  0  0
   10.2870   -3.6840    9.3640 F   0  0  0  0  0  0  0  0  0  0  0  0
   15.5050   -6.6930   11.6950 C   0  0  0  0  0  0  0  0  0  0  0  0
   15.4390   -5.9740   12.8990 C   0  0  0  0  0  3  0  0  0  0  0  0
   14.2660   -5.3400   13.3280 C   0  0  0  0  0  3  0  0  0  0  0  0
   13.1340   -5.4450   12.5070 C   0  0  0  0  0  0  0  0  0  0  0  0
   13.1620   -6.1540   11.3100 C   0  0  0  0  0  0  0  0  0  0  0  0
   14.3470   -6.7820   10.8960 C   0  0  0  0  0  3  0  0  0  0  0  0
   11.9410   -6.1060   10.6870 N   0  0  0  0  0  0  0  0  0  0  0  0
   11.1430   -5.4180   11.4810 C   0  0  0  0  0  0  0  0  0  0  0  0
   11.8450   -4.9510   12.5850 N   0  0  0  0  0  0  0  0  0  0  0  0
   11.3430   -4.0190   13.5910 C   0  0  0  0  0  3  0  0  0  0  0  0
   11.4040   -4.5850   15.0200 C   0  0  0  0  0  2  0  0  0  0  0  0
   10.8080   -3.6060   16.0290 C   0  0  0  0  0  2  0  0  0  0  0  0
   11.4650   -2.2300   15.9360 C   0  0  0  0  0  2  0  0  0  0  0  0
   11.3920   -1.6650   14.5210 C   0  0  0  0  0  2  0  0  0  0  0  0
   11.9920   -2.6270   13.4970 C   0  0  0  0  0  2  0  0  0  0  0  0
   17.8810   -6.8130   11.6490 O   0  0  0  0  0  1  0  0  0  0  0  0
   16.7980   -7.3570   11.2630 C   0  0  0  0  0  0  0  0  0  0  0  0
   16.7050   -8.4010   10.5460 O   0  0  0  0  0  0  0  0  0  0  0  0
    5.6740   -4.4880   10.4420 O   0  0  0  0  0  0  0  0  0  0  0  0
    5.0840   -3.1910   10.4630 C   0  0  0  0  0  2  0  0  0  0  0  0
    3.6580   -3.2020   10.9780 C   0  0  0  0  0  0  0  0  0  0  0  0
    3.4360   -3.2390   12.3690 C   0  0  0  0  0  3  0  0  0  0  0  0
    2.1350   -3.2280   12.8860 C   0  0  0  0  0  0  0  0  0  0  0  0
    1.0390   -3.2310   12.0270 C   0  0  0  0  0  3  0  0  0  0  0  0
    1.2440   -3.1920   10.6480 C   0  0  0  0  0  3  0  0  0  0  0  0
    2.5440   -3.1680   10.1030 C   0  0  0  0  0  0  0  0  0  0  0  0
    1.8970   -3.2970   14.3460 C   0  0  0  0  0  0  0  0  0  0  0  0
    1.5940   -4.3900   14.8180 O   0  0  0  0  0  0  0  0  0  0  0  0
    2.0240   -2.1410   15.1140 N   0  0  0  0  0  0  0  0  0  0  0  0
    2.0300   -0.7720   14.5970 C   0  0  0  0  0  2  0  0  0  0  0  0
    0.8260    0.0030   15.1280 C   0  0  0  0  0  2  0  0  0  0  0  0
    0.7100   -0.0810   16.6500 C   0  0  1  0  0  3  0  0  0  0  0  0
    0.7970   -1.5230   17.1550 C   0  0  0  0  0  2  0  0  0  0  0  0
    1.9950   -2.2620   16.5690 C   0  0  0  0  0  2  0  0  0  0  0  0
    1.7050    0.7370   17.2630 O   0  0  0  0  0  0  0  0  0  0  0  0
    2.5770    0.3240   17.1470 H   0  0  0  0  0  0  0  0  0  0  0  0
    2.6870   -3.1120    8.6420 C   0  0  0  0  0  0  0  0  0  0  0  0
    2.8710   -4.2890    7.8970 C   0  0  0  0  0  3  0  0  0  0  0  0
    3.0020   -4.2400    6.5060 C   0  0  0  0  0  3  0  0  0  0  0  0
    2.9420   -3.0130    5.8490 C   0  0  0  0  0  0  0  0  0  0  0  0
    3.1020   -2.9490    4.1380 Cl  0  0  0  0  0  0  0  0  0  0  0  0
    2.7510   -1.8370    6.5710 C   0  0  0  0  0  3  0  0  0  0  0  0
    2.6210   -1.8870    7.9610 C   0  0  0  0  0  3  0  0  0  0  0  0
  1 15  1  0  0  0  0
  1  2  1  0  0  0  0
  3  2  2  0  0  0  0
  4  3  1  0  0  0  0
  5  6  1  0  0  0  0
  5  4  2  0  0  0  0
  6  1  2  0  0  0  0
  7  6  1  0  0  0  0
  8  9  1  0  0  0  0
  9 10  2  0  0  0  0
 11 16  1  0  0  0  0
 11 10  1  0  0  0  0
 12 11  2  0  0  0  0
 13 12  1  0  0  0  0
 13  8  2  0  0  0  0
 14 12  1  0  0  0  0
 14 15  2  0  0  0  0
 15 16  1  0  0  0  0
 16 17  1  0  0  0  0
 17 18  1  0  0  0  0
 18 19  1  0  0  0  0
 20 19  1  0  0  0  0
 21 20  1  0  0  0  0
 22 17  1  0  0  0  0
 22 21  1  0  0  0  0
 24 23  1  0  0  0  0
 24  8  1  0  0  0  0
 25 24  2  0  0  0  0
 26 27  1  0  0  0  0
 26  4  1  0  0  0  0
 27 28  1  0  0  0  0
 28 29  1  0  0  0  0
 29 30  2  0  0  0  0
 30 34  1  0  0  0  0
 31 30  1  0  0  0  0
 32 31  2  0  0  0  0
 33 32  1  0  0  0  0
 33 28  2  0  0  0  0
 34 35  2  0  0  0  0
 34 36  1  0  0  0  0
 36 41  1  0  0  0  0
 37 36  1  0  0  0  0
 37 38  1  0  0  0  0
 38 39  1  0  0  0  0
 39 40  1  0  0  0  0
 39 42  1  1  0  0  0
 41 40  1  0  0  0  0
 43 42  1  0  0  0  0
 44 33  1  0  0  0  0
 45 44  2  0  0  0  0
 46 45  1  0  0  0  0
 47 46  2  0  0  0  0
 47 49  1  0  0  0  0
 48 47  1  0  0  0  0
 49 50  2  0  0  0  0
 50 44  1  0  0  0  0
M  END
>  <minimizedAffinity>
-10.1066904

$$$$
