
 OpenBabel09122222393D

 28 30  0  0  0  0  0  0  0  0999 V2000
    2.4270   -2.0220    6.7490 C   0  0  0  0  0  0  0  0  0  0  0  0
    2.7660   -3.2140    7.3580 N   0  0  0  0  0  0  0  0  0  0  0  0
    2.7050   -3.2700    8.6440 C   0  0  0  0  0  0  0  0  0  0  0  0
    2.3400   -2.2230    9.4250 N   0  0  0  0  0  0  0  0  0  0  0  0
    2.0890   -0.9910    8.9000 C   0  0  0  0  0  0  0  0  0  0  0  0
    1.8540   -0.0310    9.6250 O   0  0  0  0  0  0  0  0  0  0  0  0
    2.1050   -0.9030    7.4250 C   0  0  0  0  0  0  0  0  0  0  0  0
    2.2730   -2.3150   10.4250 H   0  0  0  0  0  0  0  0  0  0  0  0
    0.4040   -0.4510    2.4080 C   0  0  0  0  0  1  0  0  0  0  0  0
    1.3730   -1.3130    3.1610 C   0  0  0  0  0  0  0  0  0  0  0  0
    2.1580   -2.2500    2.4800 C   0  0  0  0  0  3  0  0  0  0  0  0
    3.0400   -3.0730    3.1790 C   0  0  0  0  0  3  0  0  0  0  0  0
    3.1300   -2.9780    4.5670 C   0  0  0  0  0  3  0  0  0  0  0  0
    2.3290   -2.0690    5.2730 C   0  0  0  0  0  0  0  0  0  0  0  0
    1.4580   -1.2320    4.5600 C   0  0  0  0  0  3  0  0  0  0  0  0
    1.6390    0.3960    6.7890 C   0  0  0  0  0  2  0  0  0  0  0  0
    1.2520    1.4740    6.2610 N   0  0  0  0  0  1  0  0  0  0  0  0
    3.0340   -4.7620    9.4620 S   0  0  0  0  0  0  0  0  0  0  0  0
    4.8360   -4.9040    9.4090 C   0  0  0  0  0  2  0  0  0  0  0  0
    5.5470   -3.9120    8.5220 C   0  0  0  0  0  0  0  0  0  0  0  0
    6.0930   -4.3330    7.2960 C   0  0  0  0  0  3  0  0  0  0  0  0
    6.7370   -3.4280    6.4490 C   0  0  0  0  0  3  0  0  0  0  0  0
    6.8360   -2.0850    6.8050 C   0  0  0  0  0  3  0  0  0  0  0  0
    6.2840   -1.6510    8.0160 C   0  0  0  0  0  0  0  0  0  0  0  0
    5.6380   -2.5560    8.8730 C   0  0  0  0  0  3  0  0  0  0  0  0
    6.3730   -0.2340    8.3860 N   0  0  0  0  0  0  0  0  0  0  0  0
    6.5450    0.5890    7.4750 O   0  0  0  0  0  0  0  0  0  0  0  0
    6.2640    0.0570    9.5860 O   0  0  0  0  0  0  0  0  0  0  0  0
  1  2  1  0  0  0  0
  1  7  2  0  0  0  0
  2  3  2  0  0  0  0
  3  4  1  0  0  0  0
  3 18  1  0  0  0  0
  4  8  1  0  0  0  0
  5  4  1  0  0  0  0
  5  6  2  0  0  0  0
  7  5  1  0  0  0  0
  9 10  1  0  0  0  0
 10 15  1  0  0  0  0
 11 10  2  0  0  0  0
 11 12  1  0  0  0  0
 12 13  2  0  0  0  0
 13 14  1  0  0  0  0
 14  1  1  0  0  0  0
 15 14  2  0  0  0  0
 16  7  1  0  0  0  0
 17 16  1  0  0  0  0
 19 18  1  0  0  0  0
 20 25  1  0  0  0  0
 20 19  1  0  0  0  0
 21 20  2  0  0  0  0
 22 23  2  0  0  0  0
 22 21  1  0  0  0  0
 23 24  1  0  0  0  0
 24 26  1  0  0  0  0
 24 25  2  0  0  0  0
 26 28  2  0  0  0  0
 27 26  2  0  0  0  0
M  END
>  <minimizedAffinity>
7.84629726

$$$$
