
 OpenBabel09122222393D

 45 47  0  0  1  0  0  0  0  0999 V2000
    2.5510   -1.9050    4.2200 C   0  0  2  0  0  3  0  0  0  0  0  0
    2.3450   -1.1400    5.2890 N   0  0  0  0  0  0  0  0  0  0  0  0
    1.6120    0.3200    5.1040 S   0  0  0  0  0  0  0  0  0  0  0  0
    0.6730    0.5270    6.1840 O   0  0  0  0  0  0  0  0  0  0  0  0
    2.5520    1.3570    4.7400 O   0  0  0  0  0  0  0  0  0  0  0  0
    0.6580   -0.0280    3.6520 C   0  0  0  0  0  0  0  0  0  0  0  0
   -1.1520   -0.0970    3.5540 C   0  0  0  0  0  3  0  0  0  0  0  0
   -1.9370   -0.7610    2.0630 C   0  0  0  0  0  0  0  0  0  0  0  0
   -0.8990   -1.3780    0.6840 C   0  0  0  0  0  3  0  0  0  0  0  0
    0.9080   -1.4270    0.8730 C   0  0  0  0  0  3  0  0  0  0  0  0
    1.6770   -0.7500    2.3580 C   0  0  0  0  0  0  0  0  0  0  0  0
    2.8650   -1.3270    2.9340 N   0  0  0  0  0  0  0  0  0  0  0  0
    2.0100   -1.5860    6.1320 H   0  0  0  0  0  0  0  0  0  0  0  0
    3.3800   -1.8960    2.2640 H   0  0  0  0  0  0  0  0  0  0  0  0
    2.7340   -4.9300    5.0780 N   0  0  0  0  0  0  0  0  0  0  0  0
    2.2430   -4.2960    3.7580 C   0  0  0  0  0  0  0  0  0  0  0  0
    2.5940   -4.5390    2.6080 O   0  0  0  0  0  0  0  0  0  0  0  0
    1.5100   -2.9820    4.0330 C   0  0  1  0  0  3  0  0  0  0  0  0
    0.4450   -3.1480    4.8270 C   0  0  1  0  0  3  0  0  0  0  0  0
    0.1140   -4.5130    5.2210 C   0  0  1  0  0  3  0  0  0  0  0  0
   -1.2130   -4.8940    5.4320 C   0  0  0  0  0  3  0  0  0  0  0  0
   -1.4970   -6.2150    5.7360 C   0  0  0  0  0  3  0  0  0  0  0  0
   -0.4410   -7.1030    5.7980 C   0  0  0  0  0  3  0  0  0  0  0  0
    0.8600   -6.7650    5.6040 N   0  0  0  0  0  0  0  0  0  0  0  0
    1.1630   -5.4590    5.3890 C   0  0  0  0  0  0  0  0  0  0  0  0
   -0.2420   -2.1390    5.4590 O   0  0  0  0  0  0  0  0  0  0  0  0
   -0.1660   -1.3100    4.9530 H   0  0  0  0  0  0  0  0  0  0  0  0
    4.5260   -5.0640    6.1860 C   0  0  0  0  0  1  0  0  0  0  0  0
    6.1560   -4.3930    5.9490 C   0  0  0  0  0  2  0  0  0  0  0  0
    7.0990   -2.2380    4.8980 C   0  0  0  0  0  1  0  0  0  0  0  0
    6.2250   -3.4760    4.6950 C   0  0  0  0  0  3  0  0  0  0  0  0
    6.7520   -4.2810    3.5020 C   0  0  0  0  0  1  0  0  0  0  0  0
   -3.3110   -0.4200    1.9390 N   0  0  0  0  0  0  0  0  0  0  0  0
   -3.9640   -1.0320    2.4270 H   0  0  0  0  0  0  0  0  0  0  0  0
   -4.0030    0.2710    0.6080 S   0  0  0  0  0  0  0  0  0  0  0  0
   -3.0020    0.2330   -0.4330 O   0  0  0  0  0  0  0  0  0  0  0  0
   -5.3160   -0.2840    0.3880 O   0  0  0  0  0  0  0  0  0  0  0  0
   -4.1940    1.8370    1.0110 N   0  0  0  0  0  0  0  0  0  0  0  0
   -5.3130    2.4310    1.5690 C   0  0  0  0  0  0  0  0  0  0  0  0
   -5.2400    3.5660    2.0170 O   0  0  0  0  0  0  0  0  0  0  0  0
   -3.3240    2.3440    1.1110 H   0  0  0  0  0  0  0  0  0  0  0  0
   -6.4470    1.6850    1.5520 O   0  0  0  0  0  0  0  0  0  0  0  0
   -6.8730    1.2390    0.2520 C   0  0  0  0  0  2  0  0  0  0  0  0
   -8.3210    0.7720    0.2750 C   0  0  0  0  0  2  0  0  0  0  0  0
   -8.4700   -0.7590    1.1620 Cl  0  0  0  0  0  0  0  0  0  0  0  0
  1 12  1  6  0  0  0
  1  2  1  0  0  0  0
  2 13  1  0  0  0  0
  3  2  1  0  0  0  0
  3  4  2  0  0  0  0
  5  3  2  0  0  0  0
  6  3  1  0  0  0  0
  7  6  1  0  0  0  0
  8  7  2  0  0  0  0
  9 10  2  0  0  0  0
  9  8  1  0  0  0  0
 10 11  1  0  0  0  0
 11 12  1  0  0  0  0
 11  6  2  0  0  0  0
 14 12  1  0  0  0  0
 15 25  2  0  0  0  0
 16 15  1  0  0  0  0
 17 16  2  0  0  0  0
 18 16  1  1  0  0  0
 18  1  1  0  0  0  0
 18 19  1  0  0  0  0
 19 20  1  0  0  0  0
 19 26  1  1  0  0  0
 20 25  1  0  0  0  0
 20 21  1  6  0  0  0
 21 22  2  0  0  0  0
 22 23  1  0  0  0  0
 24 23  2  0  0  0  0
 25 24  1  0  0  0  0
 27 26  1  0  0  0  0
 29 28  1  0  0  0  0
 31 30  1  0  0  0  0
 31 29  1  0  0  0  0
 32 31  1  0  0  0  0
 33  8  1  0  0  0  0
 33 34  1  0  0  0  0
 35 38  1  0  0  0  0
 35 33  1  0  0  0  0
 36 35  2  0  0  0  0
 37 35  2  0  0  0  0
 38 41  1  0  0  0  0
 38 39  1  0  0  0  0
 39 40  2  0  0  0  0
 42 39  1  0  0  0  0
 43 44  1  0  0  0  0
 43 42  1  0  0  0  0
 44 45  1  0  0  0  0
M  END
>  <minimizedAffinity>
73.7246704

$$$$
