
 OpenBabel09122222393D

 45 47  0  0  1  0  0  0  0  0999 V2000
    2.5400   -1.3570    3.6690 C   0  0  2  0  0  3  0  0  0  0  0  0
    2.5010   -0.6040    4.7650 N   0  0  0  0  0  0  0  0  0  0  0  0
    1.4170    0.6290    4.8570 S   0  0  0  0  0  0  0  0  0  0  0  0
    0.8430    0.6670    6.1840 O   0  0  0  0  0  0  0  0  0  0  0  0
    1.9150    1.8370    4.2370 O   0  0  0  0  0  0  0  0  0  0  0  0
    0.1700   -0.0150    3.7750 C   0  0  0  0  0  0  0  0  0  0  0  0
   -1.5070   -0.5150    4.2560 C   0  0  0  0  0  3  0  0  0  0  0  0
   -2.5340   -1.4270    3.0760 C   0  0  0  0  0  0  0  0  0  0  0  0
   -1.8650   -1.8560    1.4250 C   0  0  0  0  0  3  0  0  0  0  0  0
   -0.1350   -1.4670    1.0290 C   0  0  0  0  0  3  0  0  0  0  0  0
    0.8740   -0.5460    2.2080 C   0  0  0  0  0  0  0  0  0  0  0  0
    2.2850   -0.7930    2.3640 N   0  0  0  0  0  0  0  0  0  0  0  0
    2.5650   -1.0690    5.6610 H   0  0  0  0  0  0  0  0  0  0  0  0
    2.6850   -1.2610    1.5510 H   0  0  0  0  0  0  0  0  0  0  0  0
    3.7350   -4.2510    4.0150 N   0  0  0  0  0  0  0  0  0  0  0  0
    2.6030   -3.7430    3.0950 C   0  0  0  0  0  0  0  0  0  0  0  0
    2.4770   -3.8750    1.8810 O   0  0  0  0  0  0  0  0  0  0  0  0
    1.7850   -2.6580    3.7970 C   0  0  1  0  0  3  0  0  0  0  0  0
    1.2240   -3.0960    4.9310 C   0  0  1  0  0  3  0  0  0  0  0  0
    1.4030   -4.5050    5.2620 C   0  0  1  0  0  3  0  0  0  0  0  0
    0.4120   -5.2100    5.9500 C   0  0  0  0  0  3  0  0  0  0  0  0
    0.5850   -6.5640    6.1850 C   0  0  0  0  0  3  0  0  0  0  0  0
    1.7350   -7.1590    5.7060 C   0  0  0  0  0  3  0  0  0  0  0  0
    2.7200   -6.5040    5.0390 N   0  0  0  0  0  0  0  0  0  0  0  0
    2.6050   -5.1600    4.8750 C   0  0  0  0  0  0  0  0  0  0  0  0
    0.6650   -2.3010    5.9030 O   0  0  0  0  0  0  0  0  0  0  0  0
    0.3340   -1.4720    5.5120 H   0  0  0  0  0  0  0  0  0  0  0  0
    5.8080   -3.9460    4.2710 C   0  0  0  0  0  1  0  0  0  0  0  0
    7.2020   -4.0850    3.1760 C   0  0  0  0  0  2  0  0  0  0  0  0
    6.9150   -6.2990    1.8900 C   0  0  0  0  0  1  0  0  0  0  0  0
    6.8170   -4.7740    1.8360 C   0  0  0  0  0  3  0  0  0  0  0  0
    5.3910   -4.3690    1.4450 C   0  0  0  0  0  1  0  0  0  0  0  0
   -3.9180   -1.4280    3.4030 N   0  0  0  0  0  0  0  0  0  0  0  0
   -4.2660   -2.2770    3.8470 H   0  0  0  0  0  0  0  0  0  0  0  0
   -5.0990   -0.6610    2.5400 S   0  0  0  0  0  0  0  0  0  0  0  0
   -5.5080   -1.5850    1.5060 O   0  0  0  0  0  0  0  0  0  0  0  0
   -6.0700   -0.0810    3.4360 O   0  0  0  0  0  0  0  0  0  0  0  0
   -4.3310    0.5640    1.7910 N   0  0  0  0  0  0  0  0  0  0  0  0
   -4.8900    1.7250    1.2880 C   0  0  0  0  0  0  0  0  0  0  0  0
   -4.1680    2.6500    0.9460 O   0  0  0  0  0  0  0  0  0  0  0  0
   -3.3330    0.5870    1.9610 H   0  0  0  0  0  0  0  0  0  0  0  0
   -6.2440    1.7340    1.1910 O   0  0  0  0  0  0  0  0  0  0  0  0
   -6.8220    0.6070    0.5080 C   0  0  0  0  0  2  0  0  0  0  0  0
   -8.3200    0.5170    0.7580 C   0  0  0  0  0  2  0  0  0  0  0  0
   -8.8570   -1.1760    0.7290 Cl  0  0  0  0  0  0  0  0  0  0  0  0
  1 12  1  6  0  0  0
  1 18  1  0  0  0  0
  1  2  1  0  0  0  0
  2  3  1  0  0  0  0
  2 13  1  0  0  0  0
  3  4  2  0  0  0  0
  5  3  2  0  0  0  0
  6  7  1  0  0  0  0
  6  3  1  0  0  0  0
  8 33  1  0  0  0  0
  8  7  2  0  0  0  0
  9  8  1  0  0  0  0
 10  9  2  0  0  0  0
 10 11  1  0  0  0  0
 11 12  1  0  0  0  0
 11  6  2  0  0  0  0
 14 12  1  0  0  0  0
 15 25  2  0  0  0  0
 16 15  1  0  0  0  0
 17 16  2  0  0  0  0
 18 16  1  1  0  0  0
 18 19  1  0  0  0  0
 19 20  1  0  0  0  0
 19 26  1  1  0  0  0
 20 21  1  6  0  0  0
 21 22  2  0  0  0  0
 23 22  1  0  0  0  0
 24 23  2  0  0  0  0
 25 24  1  0  0  0  0
 25 20  1  0  0  0  0
 27 26  1  0  0  0  0
 29 28  1  0  0  0  0
 31 30  1  0  0  0  0
 31 29  1  0  0  0  0
 32 31  1  0  0  0  0
 33 34  1  0  0  0  0
 35 33  1  0  0  0  0
 35 37  2  0  0  0  0
 36 35  2  0  0  0  0
 38 41  1  0  0  0  0
 38 35  1  0  0  0  0
 39 38  1  0  0  0  0
 40 39  2  0  0  0  0
 42 39  1  0  0  0  0
 43 44  1  0  0  0  0
 43 42  1  0  0  0  0
 45 44  1  0  0  0  0
M  END
>  <minimizedAffinity>
73.6488724

$$$$
