
 OpenBabel09122222393D

 45 47  0  0  1  0  0  0  0  0999 V2000
    2.7010   -1.5660    3.8360 C   0  0  2  0  0  3  0  0  0  0  0  0
    2.6630   -0.8080    4.9290 N   0  0  0  0  0  0  0  0  0  0  0  0
    1.7830    0.5810    4.9150 S   0  0  0  0  0  0  0  0  0  0  0  0
    1.0830    0.7200    6.1720 O   0  0  0  0  0  0  0  0  0  0  0  0
    2.5290    1.6910    4.3630 O   0  0  0  0  0  0  0  0  0  0  0  0
    0.5740    0.1330    3.6990 C   0  0  0  0  0  0  0  0  0  0  0  0
   -1.2020   -0.0940    3.9920 C   0  0  0  0  0  3  0  0  0  0  0  0
   -2.2270   -0.8420    2.7000 C   0  0  0  0  0  0  0  0  0  0  0  0
   -1.4590   -1.3840    1.1270 C   0  0  0  0  0  3  0  0  0  0  0  0
    0.3430   -1.2750    0.9230 C   0  0  0  0  0  3  0  0  0  0  0  0
    1.3510   -0.5150    2.2120 C   0  0  0  0  0  0  0  0  0  0  0  0
    2.6810   -0.9790    2.5160 N   0  0  0  0  0  0  0  0  0  0  0  0
    2.5560   -1.2700    5.8220 H   0  0  0  0  0  0  0  0  0  0  0  0
    3.0870   -1.5110    1.7470 H   0  0  0  0  0  0  0  0  0  0  0  0
    3.3600   -4.5860    4.4430 N   0  0  0  0  0  0  0  0  0  0  0  0
    2.4810   -3.9590    3.3380 C   0  0  0  0  0  0  0  0  0  0  0  0
    2.5300   -4.1310    2.1240 O   0  0  0  0  0  0  0  0  0  0  0  0
    1.7420   -2.7310    3.8700 C   0  0  1  0  0  3  0  0  0  0  0  0
    0.9480   -3.0230    4.9070 C   0  0  1  0  0  3  0  0  0  0  0  0
    0.8490   -4.4260    5.2970 C   0  0  2  0  0  3  0  0  0  0  0  0
   -0.3350   -4.9390    5.8300 C   0  0  0  0  0  3  0  0  0  0  0  0
   -0.4150   -6.2900    6.1230 C   0  0  0  0  0  3  0  0  0  0  0  0
    0.6890   -7.0740    5.8530 C   0  0  0  0  0  3  0  0  0  0  0  0
    1.8570   -6.6080    5.3420 N   0  0  0  0  0  0  0  0  0  0  0  0
    1.9810   -5.2720    5.1280 C   0  0  0  0  0  0  0  0  0  0  0  0
    0.3730   -2.1060    5.7550 O   0  0  0  0  0  0  0  0  0  0  0  0
    0.2410   -1.2580    5.2940 H   0  0  0  0  0  0  0  0  0  0  0  0
    5.3880   -4.5830    5.0280 C   0  0  0  0  0  1  0  0  0  0  0  0
    6.9130   -4.4020    4.1310 C   0  0  0  0  0  2  0  0  0  0  0  0
    5.9690   -5.1540    1.8540 C   0  0  0  0  0  1  0  0  0  0  0  0
    6.6640   -4.0400    2.6380 C   0  0  0  0  0  3  0  0  0  0  0  0
    5.8250   -2.7600    2.5560 C   0  0  0  0  0  1  0  0  0  0  0  0
   -3.6210   -0.6230    2.8760 N   0  0  0  0  0  0  0  0  0  0  0  0
   -4.1060   -1.3090    3.4530 H   0  0  0  0  0  0  0  0  0  0  0  0
   -4.6260    0.0520    1.7530 S   0  0  0  0  0  0  0  0  0  0  0  0
   -5.0490    1.3210    2.2990 O   0  0  0  0  0  0  0  0  0  0  0  0
   -4.0260   -0.0240    0.4430 O   0  0  0  0  0  0  0  0  0  0  0  0
   -5.9390   -0.9120    1.7460 N   0  0  0  0  0  0  0  0  0  0  0  0
   -7.1390   -0.6940    1.0920 C   0  0  0  0  0  0  0  0  0  0  0  0
   -7.9550   -1.5990    0.9990 O   0  0  0  0  0  0  0  0  0  0  0  0
   -5.7470   -1.8670    2.0190 H   0  0  0  0  0  0  0  0  0  0  0  0
   -7.3270    0.5610    0.6090 O   0  0  0  0  0  0  0  0  0  0  0  0
   -8.1790    0.6570   -0.5470 C   0  0  0  0  0  2  0  0  0  0  0  0
   -9.5130    1.3000   -0.1990 C   0  0  0  0  0  2  0  0  0  0  0  0
  -10.4200    0.2810    0.9370 Cl  0  0  0  0  0  0  0  0  0  0  0  0
  1 12  1  6  0  0  0
  1 18  1  0  0  0  0
  1  2  1  0  0  0  0
  2 13  1  0  0  0  0
  3  2  1  0  0  0  0
  3  4  2  0  0  0  0
  5  3  2  0  0  0  0
  6  7  1  0  0  0  0
  6  3  1  0  0  0  0
  8 33  1  0  0  0  0
  8  7  2  0  0  0  0
  9  8  1  0  0  0  0
 10  9  2  0  0  0  0
 10 11  1  0  0  0  0
 11 12  1  0  0  0  0
 11  6  2  0  0  0  0
 14 12  1  0  0  0  0
 15 25  2  0  0  0  0
 16 15  1  0  0  0  0
 17 16  2  0  0  0  0
 18 16  1  1  0  0  0
 18 19  1  0  0  0  0
 19 20  1  0  0  0  0
 19 26  1  1  0  0  0
 20 21  1  1  0  0  0
 21 22  2  0  0  0  0
 23 22  1  0  0  0  0
 24 23  2  0  0  0  0
 25 20  1  0  0  0  0
 25 24  1  0  0  0  0
 27 26  1  0  0  0  0
 29 28  1  0  0  0  0
 30 31  1  0  0  0  0
 31 29  1  0  0  0  0
 32 31  1  0  0  0  0
 33 34  1  0  0  0  0
 35 36  2  0  0  0  0
 35 33  1  0  0  0  0
 37 35  2  0  0  0  0
 38 35  1  0  0  0  0
 38 41  1  0  0  0  0
 39 38  1  0  0  0  0
 40 39  2  0  0  0  0
 42 39  1  0  0  0  0
 43 44  1  0  0  0  0
 43 42  1  0  0  0  0
 44 45  1  0  0  0  0
M  END
>  <minimizedAffinity>
71.5629425

$$$$
