
 OpenBabel09122218353D

 14 14  0  0  0  0  0  0  0  0999 V2000
    2.6920   -3.4440    4.5460 C   0  0  0  0  0  0  0  0  0  0  0  0
    2.3110   -4.0750    5.5730 O   0  0  0  0  0  0  0  0  0  0  0  0
    2.3270   -2.2620    3.9940 C   0  0  0  0  0  2  0  0  0  0  0  0
    5.0110   -5.3430    0.6670 C   0  0  0  0  0  1  0  0  0  0  0  0
    4.8620   -5.0560    2.1030 C   0  0  0  0  0  0  0  0  0  0  0  0
    5.6110   -5.3450    3.2140 C   0  0  0  0  0  3  0  0  0  0  0  0
    4.9070   -4.7830    4.3040 C   0  0  0  0  0  3  0  0  0  0  0  0
    3.7430   -4.1630    3.8310 C   0  0  0  0  0  0  0  0  0  0  0  0
    3.7530   -4.3580    2.4520 O   0  0  0  0  0  0  0  0  0  0  0  0
    1.2920   -1.2640    4.4500 C   0  0  0  0  0  0  0  0  0  0  0  0
    1.1520   -0.8370    5.5950 O   0  0  0  0  0  0  0  0  0  0  0  0
    0.2860   -0.7090    3.3890 C   0  0  0  0  0  0  0  0  0  0  0  0
    0.7390   -0.4900    2.2110 O   0  0  0  0  0  0  0  0  0  0  0  0
   -0.9260   -0.5030    3.7430 O   0  0  0  0  0  1  0  0  0  0  0  0
  1  2  2  0  0  0  0
  3 10  1  0  0  0  0
  3  1  1  0  0  0  0
  4  5  1  0  0  0  0
  5  9  1  0  0  0  0
  5  6  2  0  0  0  0
  6  7  1  0  0  0  0
  8  7  2  0  0  0  0
  8  1  1  0  0  0  0
  9  8  1  0  0  0  0
 10 11  2  0  0  0  0
 12 14  1  0  0  0  0
 12 10  1  0  0  0  0
 13 12  2  0  0  0  0
M  END
>  <minimizedAffinity>
-0.000828985998

$$$$

 OpenBabel09122218353D

 14 14  0  0  0  0  0  0  0  0999 V2000
    2.4690   -3.2850    4.3710 C   0  0  0  0  0  0  0  0  0  0  0  0
    1.7350   -4.2990    4.5420 O   0  0  0  0  0  0  0  0  0  0  0  0
    3.7730   -3.1290    4.0390 C   0  0  0  0  0  2  0  0  0  0  0  0
   -0.8350    0.2020    3.3960 C   0  0  0  0  0  1  0  0  0  0  0  0
    0.2370   -0.4110    4.1980 C   0  0  0  0  0  0  0  0  0  0  0  0
    0.8830   -0.0560    5.3530 C   0  0  0  0  0  3  0  0  0  0  0  0
    1.8230   -1.0830    5.5930 C   0  0  0  0  0  3  0  0  0  0  0  0
    1.7290   -2.0440    4.5770 C   0  0  0  0  0  0  0  0  0  0  0  0
    0.7270   -1.5850    3.7250 O   0  0  0  0  0  0  0  0  0  0  0  0
    4.8270   -4.1690    3.7540 C   0  0  0  0  0  0  0  0  0  0  0  0
    5.7890   -4.4410    4.4700 O   0  0  0  0  0  0  0  0  0  0  0  0
    4.7130   -4.9880    2.4270 C   0  0  0  0  0  0  0  0  0  0  0  0
    3.5400   -5.3440    2.0570 O   0  0  0  0  0  1  0  0  0  0  0  0
    5.7850   -5.2600    1.7820 O   0  0  0  0  0  0  0  0  0  0  0  0
  1  2  2  0  0  0  0
  1  8  1  0  0  0  0
  3  1  1  0  0  0  0
  4  5  1  0  0  0  0
  5  6  2  0  0  0  0
  6  7  1  0  0  0  0
  8  7  2  0  0  0  0
  9  5  1  0  0  0  0
  9  8  1  0  0  0  0
 10  3  1  0  0  0  0
 10 11  2  0  0  0  0
 12 10  1  0  0  0  0
 13 12  1  0  0  0  0
 14 12  2  0  0  0  0
M  END
>  <minimizedAffinity>
1.78065383

$$$$
