
 OpenBabel09132204463D

 27 29  0  0  0  0  0  0  0  0999 V2000
    2.4240   -2.5610    6.5560 C   0  0  0  0  0  2  0  0  0  0  0  0
    3.0370   -1.5810    7.2530 C   0  0  0  0  0  0  0  0  0  0  0  0
    4.1120   -4.5370    3.6490 C   0  0  0  0  0  0  0  0  0  0  0  0
    3.6700   -5.4580    4.5730 C   0  0  0  0  0  3  0  0  0  0  0  0
    3.0300   -4.8340    5.6820 C   0  0  0  0  0  3  0  0  0  0  0  0
    3.0100   -3.4500    5.6020 C   0  0  0  0  0  0  0  0  0  0  0  0
    3.7230   -2.9410    4.1190 S   0  0  0  0  0  0  0  0  0  0  0  0
    7.0320   -4.0130    3.4140 C   0  0  0  0  0  1  0  0  0  0  0  0
    6.2070   -4.5150    2.2600 C   0  0  0  0  0  0  0  0  0  0  0  0
    6.8250   -4.7330    1.0170 C   0  0  0  0  0  3  0  0  0  0  0  0
    6.0920   -5.2020   -0.0730 C   0  0  0  0  0  3  0  0  0  0  0  0
    4.7310   -5.4590    0.0610 C   0  0  0  0  0  3  0  0  0  0  0  0
    4.1020   -5.2420    1.2870 C   0  0  0  0  0  3  0  0  0  0  0  0
    4.8260   -4.7710    2.3940 C   0  0  0  0  0  0  0  0  0  0  0  0
    4.3720   -1.2440    7.0770 N   0  0  0  0  0  4  0  0  0  0  0  0
    5.5120   -1.6740    7.7160 C   0  0  0  0  0  0  0  0  0  0  0  0
    6.5610   -1.0340    7.5910 O   0  0  0  0  0  0  0  0  0  0  0  0
    4.5530   -0.4850    6.4340 H   0  0  0  0  0  0  0  0  0  0  0  0
    5.5660   -2.9510    8.4590 C   0  0  0  0  0  0  0  0  0  0  0  0
    6.7410   -3.7090    8.4080 C   0  0  0  0  0  3  0  0  0  0  0  0
    6.7940   -4.9590    9.0270 C   0  0  0  0  0  3  0  0  0  0  0  0
    5.6680   -5.4600    9.6810 C   0  0  0  0  0  3  0  0  0  0  0  0
    4.4880   -4.7160    9.7130 C   0  0  0  0  0  3  0  0  0  0  0  0
    4.4290   -3.4670    9.0900 C   0  0  0  0  0  3  0  0  0  0  0  0
    2.0480   -0.8410    8.2110 C   0  0  0  0  0  0  0  0  0  0  0  0
    2.2750   -1.0090    9.4460 O   0  0  0  0  0  1  0  0  0  0  0  0
    1.1190   -0.2090    7.6330 O   0  0  0  0  0  0  0  0  0  0  0  0
  1  2  1  0  0  0  0
  2 25  1  0  0  0  0
  3  7  1  0  0  0  0
  3  4  2  0  0  0  0
  4  5  1  0  0  0  0
  6  5  2  0  0  0  0
  6  1  1  0  0  0  0
  7  6  1  0  0  0  0
  9 14  1  0  0  0  0
  9  8  1  0  0  0  0
 10  9  2  0  0  0  0
 11 12  2  0  0  0  0
 11 10  1  0  0  0  0
 12 13  1  0  0  0  0
 13 14  2  0  0  0  0
 14  3  1  0  0  0  0
 15  2  2  3  0  0  0
 15 16  1  0  0  0  0
 16 19  1  0  0  0  0
 17 16  2  0  0  0  0
 18 15  1  0  0  0  0
 19 24  1  0  0  0  0
 20 19  2  0  0  0  0
 20 21  1  0  0  0  0
 21 22  2  0  0  0  0
 22 23  1  0  0  0  0
 24 23  2  0  0  0  0
 25 26  1  0  0  0  0
 27 25  2  0  0  0  0
M  END
>  <minimizedAffinity>
-2.1323278

$$$$
