
 OpenBabel09132204463D

 22 24  0  0  1  0  0  0  0  0999 V2000
   10.5950   11.7890   -0.2490 O   0  0  0  0  0  0  0  0  0  0  0  0
    9.9500   10.8230    0.1600 C   0  0  0  0  0  0  0  0  0  0  0  0
    8.4580   10.8390    0.1840 C   0  0  0  0  0  2  0  0  0  0  0  0
    7.7950    9.5180    0.4000 C   0  0  0  0  0  0  0  0  0  0  0  0
    6.5790    9.4400    0.5480 O   0  0  0  0  0  0  0  0  0  0  0  0
    8.5610    8.4080    0.4370 O   0  0  0  0  0  0  0  0  0  0  0  0
    9.9980    8.3720    0.1470 C   0  0  1  0  0  0  0  0  0  0  0  0
   10.6350    9.6270    0.7390 C   0  0  0  0  0  2  0  0  0  0  0  0
   10.5150    7.0730    0.8400 C   0  0  0  0  0  3  0  0  0  0  0  0
   10.1400    6.8580    2.3100 C   0  0  0  0  0  2  0  0  0  0  0  0
   10.5600    5.4180    2.5710 C   0  0  0  0  0  2  0  0  0  0  0  0
   10.2910    4.6820    1.2620 C   0  0  0  0  0  2  0  0  0  0  0  0
    9.9980    5.7610    0.2190 C   0  0  0  0  0  2  0  0  0  0  0  0
   10.0900    8.2850   -1.4090 C   0  0  0  0  0  2  0  0  0  0  0  0
   10.4740    9.5420   -2.2030 C   0  0  0  0  0  2  0  0  0  0  0  0
    9.5080   10.0380   -3.2570 C   0  0  0  0  0  0  0  0  0  0  0  0
    9.2640   11.4010   -3.4770 C   0  0  0  0  0  3  0  0  0  0  0  0
    8.3870   11.8200   -4.4840 C   0  0  0  0  0  3  0  0  0  0  0  0
    7.7590   10.8820   -5.2990 C   0  0  0  0  0  3  0  0  0  0  0  0
    8.0210    9.5290   -5.1150 C   0  0  0  0  0  0  0  0  0  0  0  0
    7.2600    8.3640   -6.1290 Cl  0  0  0  0  0  0  0  0  0  0  0  0
    8.8960    9.1060   -4.1130 C   0  0  0  0  0  3  0  0  0  0  0  0
  1  2  2  0  0  0  0
  2  3  1  0  0  0  0
  2  8  1  0  0  0  0
  3  4  1  0  0  0  0
  4  6  1  0  0  0  0
  4  5  2  0  0  0  0
  7 14  1  6  0  0  0
  7  6  1  0  0  0  0
  7  8  1  0  0  0  0
  7  9  1  0  0  0  0
  9 10  1  0  0  0  0
 10 11  1  0  0  0  0
 12 11  1  0  0  0  0
 13  9  1  0  0  0  0
 13 12  1  0  0  0  0
 15 14  1  0  0  0  0
 16 15  1  0  0  0  0
 17 16  1  0  0  0  0
 18 17  2  0  0  0  0
 19 20  2  0  0  0  0
 19 18  1  0  0  0  0
 20 22  1  0  0  0  0
 21 20  1  0  0  0  0
 22 16  2  0  0  0  0
M  END
>  <minimizedAffinity>
-3.47505546

$$$$
