
 OpenBabel09122223363D

 22 24  0  0  1  0  0  0  0  0999 V2000
   10.5950   11.7890   -0.2490 O   0  0  0  0  0  0  0  0  0  0  0  0
    9.9500   10.8230    0.1600 C   0  0  0  0  0  0  0  0  0  0  0  0
    8.4580   10.8390    0.1840 C   0  0  0  0  0  2  0  0  0  0  0  0
    7.7950    9.5180    0.4000 C   0  0  0  0  0  0  0  0  0  0  0  0
    6.5790    9.4400    0.5480 O   0  0  0  0  0  0  0  0  0  0  0  0
    8.5610    8.4080    0.4370 O   0  0  0  0  0  0  0  0  0  0  0  0
    9.9980    8.3720    0.1470 C   0  0  1  0  0  0  0  0  0  0  0  0
   10.6350    9.6270    0.7390 C   0  0  0  0  0  2  0  0  0  0  0  0
   10.5150    7.0730    0.8400 C   0  0  0  0  0  3  0  0  0  0  0  0
   10.1400    6.8580    2.3100 C   0  0  0  0  0  2  0  0  0  0  0  0
   10.5600    5.4180    2.5710 C   0  0  0  0  0  2  0  0  0  0  0  0
   10.2910    4.6820    1.2620 C   0  0  0  0  0  2  0  0  0  0  0  0
    9.9980    5.7610    0.2190 C   0  0  0  0  0  2  0  0  0  0  0  0
   10.0900    8.2850   -1.4090 C   0  0  0  0  0  2  0  0  0  0  0  0
   10.4740    9.5420   -2.2030 C   0  0  0  0  0  2  0  0  0  0  0  0
    9.5080   10.0380   -3.2570 C   0  0  0  0  0  0  0  0  0  0  0  0
    9.2640   11.4010   -3.4770 C   0  0  0  0  0  3  0  0  0  0  0  0
    8.3870   11.8200   -4.4840 C   0  0  0  0  0  3  0  0  0  0  0  0
    7.7590   10.8820   -5.2990 C   0  0  0  0  0  3  0  0  0  0  0  0
    8.0210    9.5290   -5.1150 C   0  0  0  0  0  0  0  0  0  0  0  0
    7.2600    8.3640   -6.1290 Cl  0  0  0  0  0  0  0  0  0  0  0  0
    8.8960    9.1060   -4.1130 C   0  0  0  0  0  3  0  0  0  0  0  0
  1  2  2  0  0  0  0
  2  3  1  0  0  0  0
  2  8  1  0  0  0  0
  3  4  1  0  0  0  0
  4  6  1  0  0  0  0
  4  5  2  0  0  0  0
  7 14  1  6  0  0  0
  7  6  1  0  0  0  0
  7  8  1  0  0  0  0
  7  9  1  0  0  0  0
  9 10  1  0  0  0  0
 10 11  1  0  0  0  0
 12 11  1  0  0  0  0
 13  9  1  0  0  0  0
 13 12  1  0  0  0  0
 15 14  1  0  0  0  0
 16 15  1  0  0  0  0
 17 16  1  0  0  0  0
 18 17  2  0  0  0  0
 19 20  2  0  0  0  0
 19 18  1  0  0  0  0
 20 22  1  0  0  0  0
 21 20  1  0  0  0  0
 22 16  2  0  0  0  0
M  END
>  <minimizedAffinity>
-3.47505546

$$$$

 OpenBabel09122223363D

 22 24  0  0  1  0  0  0  0  0999 V2000
   10.3790   11.5410   -2.3060 O   0  0  0  0  0  0  0  0  0  0  0  0
    9.9310   11.1850   -1.2160 C   0  0  0  0  0  0  0  0  0  0  0  0
    8.7140   11.8190   -0.6300 C   0  0  0  0  0  2  0  0  0  0  0  0
    8.0970   11.1020    0.5260 C   0  0  0  0  0  0  0  0  0  0  0  0
    7.1620   11.5970    1.1480 O   0  0  0  0  0  0  0  0  0  0  0  0
    8.5920    9.8970    0.8790 O   0  0  0  0  0  0  0  0  0  0  0  0
    9.6160    9.1610    0.1310 C   0  0  1  0  0  0  0  0  0  0  0  0
   10.6430   10.1650   -0.3860 C   0  0  0  0  0  2  0  0  0  0  0  0
   10.2360    8.1720    1.1660 C   0  0  0  0  0  3  0  0  0  0  0  0
    9.8260    8.3360    2.6330 C   0  0  0  0  0  2  0  0  0  0  0  0
   10.3810    7.0810    3.2950 C   0  0  0  0  0  2  0  0  0  0  0  0
   10.2440    5.9840    2.2430 C   0  0  0  0  0  2  0  0  0  0  0  0
    9.8840    6.6900    0.9360 C   0  0  0  0  0  2  0  0  0  0  0  0
    8.8310    8.4170   -0.9940 C   0  0  0  0  0  2  0  0  0  0  0  0
    9.5540    8.0800   -2.3080 C   0  0  0  0  0  2  0  0  0  0  0  0
    8.8450    8.3930   -3.6070 C   0  0  0  0  0  0  0  0  0  0  0  0
    8.2000    7.4110   -4.3720 C   0  0  0  0  0  3  0  0  0  0  0  0
    7.5290    7.7470   -5.5530 C   0  0  0  0  0  3  0  0  0  0  0  0
    7.4740    9.0730   -5.9740 C   0  0  0  0  0  3  0  0  0  0  0  0
    8.0790   10.0620   -5.2050 C   0  0  0  0  0  0  0  0  0  0  0  0
    8.0020   11.7060   -5.7100 Cl  0  0  0  0  0  0  0  0  0  0  0  0
    8.7490    9.7320   -4.0260 C   0  0  0  0  0  3  0  0  0  0  0  0
  1  2  2  0  0  0  0
  2  3  1  0  0  0  0
  2  8  1  0  0  0  0
  3  4  1  0  0  0  0
  4  6  1  0  0  0  0
  4  5  2  0  0  0  0
  7 14  1  6  0  0  0
  7  6  1  0  0  0  0
  7  9  1  0  0  0  0
  8  7  1  0  0  0  0
  9 10  1  0  0  0  0
 10 11  1  0  0  0  0
 12 11  1  0  0  0  0
 13  9  1  0  0  0  0
 13 12  1  0  0  0  0
 15 14  1  0  0  0  0
 16 15  1  0  0  0  0
 17 16  2  0  0  0  0
 18 17  1  0  0  0  0
 19 18  2  0  0  0  0
 19 20  1  0  0  0  0
 20 22  2  0  0  0  0
 21 20  1  0  0  0  0
 22 16  1  0  0  0  0
M  END
>  <minimizedAffinity>
-3.20504928

$$$$

 OpenBabel09122223363D

 22 24  0  0  1  0  0  0  0  0999 V2000
    7.4350    8.1000    2.0040 O   0  0  0  0  0  0  0  0  0  0  0  0
    8.1840    8.9530    1.5290 C   0  0  0  0  0  0  0  0  0  0  0  0
    8.9340    9.9040    2.4010 C   0  0  0  0  0  2  0  0  0  0  0  0
   10.0320   10.6700    1.7390 C   0  0  0  0  0  0  0  0  0  0  0  0
   10.6340   11.5550    2.3390 O   0  0  0  0  0  0  0  0  0  0  0  0
   10.3470   10.3740    0.4600 O   0  0  0  0  0  0  0  0  0  0  0  0
    9.7830    9.2580   -0.3050 C   0  0  1  0  0  0  0  0  0  0  0  0
    8.3030    9.1370    0.0490 C   0  0  0  0  0  2  0  0  0  0  0  0
    9.9960    9.6480   -1.8000 C   0  0  0  0  0  3  0  0  0  0  0  0
    9.2970    8.7910   -2.8600 C   0  0  0  0  0  2  0  0  0  0  0  0
    9.4910    9.5920   -4.1410 C   0  0  0  0  0  2  0  0  0  0  0  0
    9.4270   11.0540   -3.7090 C   0  0  0  0  0  2  0  0  0  0  0  0
    9.4820   11.0490   -2.1810 C   0  0  0  0  0  2  0  0  0  0  0  0
   10.6400    8.0190    0.1070 C   0  0  0  0  0  2  0  0  0  0  0  0
   10.1700    6.6180   -0.3130 C   0  0  0  0  0  2  0  0  0  0  0  0
   10.2500    5.5060    0.7110 C   0  0  0  0  0  0  0  0  0  0  0  0
   10.2850    4.1510    0.3540 C   0  0  0  0  0  3  0  0  0  0  0  0
   10.3910    3.1540    1.3300 C   0  0  0  0  0  3  0  0  0  0  0  0
   10.4870    3.4990    2.6760 C   0  0  0  0  0  3  0  0  0  0  0  0
   10.4910    4.8420    3.0400 C   0  0  0  0  0  0  0  0  0  0  0  0
   10.6250    5.2780    4.7000 Cl  0  0  0  0  0  0  0  0  0  0  0  0
   10.3860    5.8400    2.0690 C   0  0  0  0  0  3  0  0  0  0  0  0
  2  1  2  0  0  0  0
  2  3  1  0  0  0  0
  4  5  2  0  0  0  0
  4  3  1  0  0  0  0
  6  4  1  0  0  0  0
  7  8  1  0  0  0  0
  7 14  1  1  0  0  0
  7  6  1  0  0  0  0
  8  2  1  0  0  0  0
  9  7  1  0  0  0  0
 10  9  1  0  0  0  0
 11 12  1  0  0  0  0
 11 10  1  0  0  0  0
 12 13  1  0  0  0  0
 13  9  1  0  0  0  0
 15 14  1  0  0  0  0
 15 16  1  0  0  0  0
 16 22  1  0  0  0  0
 17 16  2  0  0  0  0
 17 18  1  0  0  0  0
 18 19  2  0  0  0  0
 19 20  1  0  0  0  0
 20 21  1  0  0  0  0
 22 20  2  0  0  0  0
M  END
>  <minimizedAffinity>
-2.75981164

$$$$

 OpenBabel09122223363D

 22 24  0  0  1  0  0  0  0  0999 V2000
    6.0980   -4.5070   -1.8050 O   0  0  0  0  0  0  0  0  0  0  0  0
    6.5640   -5.0430   -0.7990 C   0  0  0  0  0  0  0  0  0  0  0  0
    8.0080   -5.4050   -0.7090 C   0  0  0  0  0  2  0  0  0  0  0  0
    8.5090   -5.7540    0.6540 C   0  0  0  0  0  0  0  0  0  0  0  0
    9.6510   -6.1730    0.8180 O   0  0  0  0  0  0  0  0  0  0  0  0
    7.6780   -5.6050    1.7070 O   0  0  0  0  0  0  0  0  0  0  0  0
    6.3450   -4.9970    1.6430 C   0  0  1  0  0  0  0  0  0  0  0  0
    5.6820   -5.4400    0.3420 C   0  0  0  0  0  2  0  0  0  0  0  0
    5.5950   -5.5410    2.8970 C   0  0  0  0  0  3  0  0  0  0  0  0
    5.3020   -4.5530    4.0300 C   0  0  0  0  0  2  0  0  0  0  0  0
    4.3520   -5.3280    4.9340 C   0  0  0  0  0  2  0  0  0  0  0  0
    3.5090   -6.1780    3.9890 C   0  0  0  0  0  2  0  0  0  0  0  0
    4.1790   -6.0820    2.6180 C   0  0  0  0  0  2  0  0  0  0  0  0
    6.6040   -3.4600    1.7340 C   0  0  0  0  0  2  0  0  0  0  0  0
    7.9150   -2.9620    2.3590 C   0  0  0  0  0  2  0  0  0  0  0  0
    8.7460   -1.9720    1.5720 C   0  0  0  0  0  0  0  0  0  0  0  0
    9.4720   -2.3350    0.4290 C   0  0  0  0  0  3  0  0  0  0  0  0
   10.2020   -1.3820   -0.2900 C   0  0  0  0  0  3  0  0  0  0  0  0
   10.1990   -0.0480    0.1110 C   0  0  0  0  0  3  0  0  0  0  0  0
    9.4520    0.3310    1.2210 C   0  0  0  0  0  0  0  0  0  0  0  0
    9.4290    1.9800    1.7140 Cl  0  0  0  0  0  0  0  0  0  0  0  0
    8.7210   -0.6160    1.9410 C   0  0  0  0  0  3  0  0  0  0  0  0
  1  2  2  0  0  0  0
  2  3  1  0  0  0  0
  2  8  1  0  0  0  0
  3  4  1  0  0  0  0
  4  5  2  0  0  0  0
  4  6  1  0  0  0  0
  7  6  1  0  0  0  0
  7 14  1  1  0  0  0
  7  9  1  0  0  0  0
  8  7  1  0  0  0  0
  9 10  1  0  0  0  0
 10 11  1  0  0  0  0
 12 11  1  0  0  0  0
 13  9  1  0  0  0  0
 13 12  1  0  0  0  0
 14 15  1  0  0  0  0
 16 22  1  0  0  0  0
 16 15  1  0  0  0  0
 17 16  2  0  0  0  0
 18 19  2  0  0  0  0
 18 17  1  0  0  0  0
 19 20  1  0  0  0  0
 20 21  1  0  0  0  0
 20 22  2  0  0  0  0
M  END
>  <minimizedAffinity>
-0.695830405

$$$$
