
 OpenBabel09132204463D

 22 24  0  0  1  0  0  0  0  0999 V2000
    7.4350    8.1000    2.0040 O   0  0  0  0  0  0  0  0  0  0  0  0
    8.1840    8.9530    1.5290 C   0  0  0  0  0  0  0  0  0  0  0  0
    8.9340    9.9040    2.4010 C   0  0  0  0  0  2  0  0  0  0  0  0
   10.0320   10.6700    1.7390 C   0  0  0  0  0  0  0  0  0  0  0  0
   10.6340   11.5550    2.3390 O   0  0  0  0  0  0  0  0  0  0  0  0
   10.3470   10.3740    0.4600 O   0  0  0  0  0  0  0  0  0  0  0  0
    9.7830    9.2580   -0.3050 C   0  0  1  0  0  0  0  0  0  0  0  0
    8.3030    9.1370    0.0490 C   0  0  0  0  0  2  0  0  0  0  0  0
    9.9960    9.6480   -1.8000 C   0  0  0  0  0  3  0  0  0  0  0  0
    9.2970    8.7910   -2.8600 C   0  0  0  0  0  2  0  0  0  0  0  0
    9.4910    9.5920   -4.1410 C   0  0  0  0  0  2  0  0  0  0  0  0
    9.4270   11.0540   -3.7090 C   0  0  0  0  0  2  0  0  0  0  0  0
    9.4820   11.0490   -2.1810 C   0  0  0  0  0  2  0  0  0  0  0  0
   10.6400    8.0190    0.1070 C   0  0  0  0  0  2  0  0  0  0  0  0
   10.1700    6.6180   -0.3130 C   0  0  0  0  0  2  0  0  0  0  0  0
   10.2500    5.5060    0.7110 C   0  0  0  0  0  0  0  0  0  0  0  0
   10.2850    4.1510    0.3540 C   0  0  0  0  0  3  0  0  0  0  0  0
   10.3910    3.1540    1.3300 C   0  0  0  0  0  3  0  0  0  0  0  0
   10.4870    3.4990    2.6760 C   0  0  0  0  0  3  0  0  0  0  0  0
   10.4910    4.8420    3.0400 C   0  0  0  0  0  0  0  0  0  0  0  0
   10.6250    5.2780    4.7000 Cl  0  0  0  0  0  0  0  0  0  0  0  0
   10.3860    5.8400    2.0690 C   0  0  0  0  0  3  0  0  0  0  0  0
  2  1  2  0  0  0  0
  2  3  1  0  0  0  0
  4  5  2  0  0  0  0
  4  3  1  0  0  0  0
  6  4  1  0  0  0  0
  7  8  1  0  0  0  0
  7 14  1  1  0  0  0
  7  6  1  0  0  0  0
  8  2  1  0  0  0  0
  9  7  1  0  0  0  0
 10  9  1  0  0  0  0
 11 12  1  0  0  0  0
 11 10  1  0  0  0  0
 12 13  1  0  0  0  0
 13  9  1  0  0  0  0
 15 14  1  0  0  0  0
 15 16  1  0  0  0  0
 16 22  1  0  0  0  0
 17 16  2  0  0  0  0
 17 18  1  0  0  0  0
 18 19  2  0  0  0  0
 19 20  1  0  0  0  0
 20 21  1  0  0  0  0
 22 20  2  0  0  0  0
M  END
>  <minimizedAffinity>
-2.75981164

$$$$
