
 OpenBabel09122222393D

 23 24  0  0  0  0  0  0  0  0999 V2000
    9.5530   -0.4440    1.0150 C   0  0  0  0  0  0  0  0  0  0  0  0
    8.9150   -1.3880    1.8270 C   0  0  0  0  0  3  0  0  0  0  0  0
    8.9610   -2.7390    1.4950 C   0  0  0  0  0  3  0  0  0  0  0  0
    9.6500   -3.1590    0.3500 C   0  0  0  0  0  3  0  0  0  0  0  0
   10.3040   -2.2440   -0.4820 C   0  0  0  0  0  0  0  0  0  0  0  0
   10.2470   -0.8880   -0.1230 C   0  0  0  0  0  3  0  0  0  0  0  0
   10.1550    1.7310    0.3950 C   0  0  0  0  0  2  0  0  0  0  0  0
    9.4990    1.0200    1.3490 C   0  0  0  0  0  0  0  0  0  0  0  0
    8.9020    1.3820    2.4030 O   0  0  0  0  0  0  0  0  0  0  0  0
   10.3880    3.2180    0.2620 C   0  0  0  0  0  0  0  0  0  0  0  0
    9.5280    4.0750    0.0720 O   0  0  0  0  0  0  0  0  0  0  0  0
   12.3470    3.9220    1.5570 O   0  0  0  0  0  1  0  0  0  0  0  0
   11.8570    3.7410    0.3880 C   0  0  0  0  0  0  0  0  0  0  0  0
   12.4960    3.9600   -0.7010 O   0  0  0  0  0  0  0  0  0  0  0  0
   11.0170   -2.6000   -1.6140 N   0  0  0  0  0  0  0  0  0  0  0  0
   10.6370   -2.2640   -2.4910 H   0  0  0  0  0  0  0  0  0  0  0  0
   12.1480   -3.4930   -1.6850 C   0  0  0  0  0  2  0  0  0  0  0  0
   13.4690   -2.7550   -1.6360 C   0  0  0  0  0  0  0  0  0  0  0  0
   14.5770   -3.2700   -0.9480 C   0  0  0  0  0  3  0  0  0  0  0  0
   15.7750   -2.5560   -0.8840 C   0  0  0  0  0  3  0  0  0  0  0  0
   15.8780   -1.3090   -1.4950 C   0  0  0  0  0  3  0  0  0  0  0  0
   14.7830   -0.7750   -2.1700 C   0  0  0  0  0  3  0  0  0  0  0  0
   13.5850   -1.4910   -2.2360 C   0  0  0  0  0  3  0  0  0  0  0  0
  1  8  1  0  0  0  0
  1  2  1  0  0  0  0
  3  2  2  0  0  0  0
  4  3  1  0  0  0  0
  5  6  1  0  0  0  0
  5  4  2  0  0  0  0
  6  1  2  0  0  0  0
  7  8  1  0  0  0  0
  8  9  2  0  0  0  0
 10 13  1  0  0  0  0
 10  7  1  0  0  0  0
 11 10  2  0  0  0  0
 13 12  1  0  0  0  0
 14 13  2  0  0  0  0
 15  5  1  0  0  0  0
 16 15  1  0  0  0  0
 17 18  1  0  0  0  0
 17 15  1  0  0  0  0
 18 19  1  0  0  0  0
 19 20  2  0  0  0  0
 21 20  1  0  0  0  0
 22 21  2  0  0  0  0
 23 22  1  0  0  0  0
 23 18  2  0  0  0  0
M  END
>  <minimizedAffinity>
-7.19735384

$$$$
