
 OpenBabel09122222393D

 23 24  0  0  0  0  0  0  0  0999 V2000
   10.8570   -2.7020   -1.1170 C   0  0  0  0  0  0  0  0  0  0  0  0
   12.0260   -3.3310   -1.5590 C   0  0  0  0  0  3  0  0  0  0  0  0
   12.9730   -2.6110   -2.2840 C   0  0  0  0  0  3  0  0  0  0  0  0
   12.7610   -1.2570   -2.5680 C   0  0  0  0  0  3  0  0  0  0  0  0
   11.6060   -0.5940   -2.1370 C   0  0  0  0  0  0  0  0  0  0  0  0
   10.6690   -1.3400   -1.4040 C   0  0  0  0  0  3  0  0  0  0  0  0
    9.6960   -2.9480    0.9000 C   0  0  0  0  0  2  0  0  0  0  0  0
    9.8160   -3.4670   -0.3490 C   0  0  0  0  0  0  0  0  0  0  0  0
    9.2310   -4.4350   -0.9150 O   0  0  0  0  0  0  0  0  0  0  0  0
    8.8010   -3.3480    2.0510 C   0  0  0  0  0  0  0  0  0  0  0  0
    7.9310   -4.2160    2.0280 O   0  0  0  0  0  0  0  0  0  0  0  0
    9.2700   -1.3590    3.4030 O   0  0  0  0  0  0  0  0  0  0  0  0
    8.9910   -2.6080    3.4150 C   0  0  0  0  0  0  0  0  0  0  0  0
    8.8540   -3.3030    4.4830 O   0  0  0  0  0  1  0  0  0  0  0  0
   11.3510    0.7460   -2.3680 N   0  0  0  0  0  0  0  0  0  0  0  0
   10.5740    0.9400   -2.9900 H   0  0  0  0  0  0  0  0  0  0  0  0
   12.1430    1.8710   -1.9330 C   0  0  0  0  0  2  0  0  0  0  0  0
   11.7180    2.3830   -0.5730 C   0  0  0  0  0  0  0  0  0  0  0  0
   10.4400    2.1270   -0.0560 C   0  0  0  0  0  3  0  0  0  0  0  0
   10.0540    2.6410    1.1850 C   0  0  0  0  0  3  0  0  0  0  0  0
   10.9360    3.4300    1.9190 C   0  0  0  0  0  3  0  0  0  0  0  0
   12.2040    3.7060    1.4130 C   0  0  0  0  0  3  0  0  0  0  0  0
   12.5910    3.1910    0.1730 C   0  0  0  0  0  3  0  0  0  0  0  0
  1  8  1  0  0  0  0
  2  1  2  0  0  0  0
  3  2  1  0  0  0  0
  4  3  2  0  0  0  0
  4  5  1  0  0  0  0
  5  6  2  0  0  0  0
  6  1  1  0  0  0  0
  7 10  1  0  0  0  0
  8  7  1  0  0  0  0
  9  8  2  0  0  0  0
 10 13  1  0  0  0  0
 11 10  2  0  0  0  0
 12 13  2  0  0  0  0
 13 14  1  0  0  0  0
 15  5  1  0  0  0  0
 15 17  1  0  0  0  0
 16 15  1  0  0  0  0
 17 18  1  0  0  0  0
 18 19  2  0  0  0  0
 18 23  1  0  0  0  0
 19 20  1  0  0  0  0
 20 21  2  0  0  0  0
 22 21  1  0  0  0  0
 23 22  2  0  0  0  0
M  END
>  <minimizedAffinity>
-6.92090988

$$$$
