
 OpenBabel09122222393D

 23 24  0  0  0  0  0  0  0  0999 V2000
    9.2870   -1.8890    1.6460 C   0  0  0  0  0  0  0  0  0  0  0  0
    8.4730   -2.9640    2.0160 C   0  0  0  0  0  3  0  0  0  0  0  0
    8.4160   -4.1030    1.2170 C   0  0  0  0  0  3  0  0  0  0  0  0
    9.1760   -4.1780    0.0430 C   0  0  0  0  0  3  0  0  0  0  0  0
   10.0060   -3.1230   -0.3550 C   0  0  0  0  0  0  0  0  0  0  0  0
   10.0500   -1.9880    0.4700 C   0  0  0  0  0  3  0  0  0  0  0  0
    9.4970    0.4420    1.6860 C   0  0  0  0  0  2  0  0  0  0  0  0
    9.3470   -0.6450    2.4870 C   0  0  0  0  0  0  0  0  0  0  0  0
    9.2670   -0.7560    3.7450 O   0  0  0  0  0  0  0  0  0  0  0  0
    9.6090    1.9090    2.0290 C   0  0  0  0  0  0  0  0  0  0  0  0
    9.3740    2.4210    3.1220 O   0  0  0  0  0  0  0  0  0  0  0  0
   11.2480    2.7330    0.4030 O   0  0  0  0  0  0  0  0  0  0  0  0
   10.0800    2.8880    0.9040 C   0  0  0  0  0  0  0  0  0  0  0  0
    9.2580    3.8020    0.5410 O   0  0  0  0  0  1  0  0  0  0  0  0
   10.7950   -3.1470   -1.4920 N   0  0  0  0  0  0  0  0  0  0  0  0
   10.3770   -2.7400   -2.3200 H   0  0  0  0  0  0  0  0  0  0  0  0
   12.0740   -3.7960   -1.6500 C   0  0  0  0  0  2  0  0  0  0  0  0
   13.2170   -2.8070   -1.7260 C   0  0  0  0  0  0  0  0  0  0  0  0
   14.5040   -3.1290   -1.2710 C   0  0  0  0  0  3  0  0  0  0  0  0
   15.5360   -2.1890   -1.3160 C   0  0  0  0  0  3  0  0  0  0  0  0
   15.2910   -0.9070   -1.8040 C   0  0  0  0  0  3  0  0  0  0  0  0
   14.0160   -0.5650   -2.2460 C   0  0  0  0  0  3  0  0  0  0  0  0
   12.9840   -1.5070   -2.2030 C   0  0  0  0  0  3  0  0  0  0  0  0
  1  2  1  0  0  0  0
  1  8  1  0  0  0  0
  3  2  2  0  0  0  0
  4  3  1  0  0  0  0
  5  4  2  0  0  0  0
  5  6  1  0  0  0  0
  6  1  2  0  0  0  0
  7 10  1  0  0  0  0
  7  8  1  0  0  0  0
  8  9  2  0  0  0  0
 10 11  2  0  0  0  0
 12 13  2  0  0  0  0
 13 10  1  0  0  0  0
 14 13  1  0  0  0  0
 15  5  1  0  0  0  0
 16 15  1  0  0  0  0
 17 15  1  0  0  0  0
 18 17  1  0  0  0  0
 18 19  1  0  0  0  0
 20 19  2  0  0  0  0
 21 20  1  0  0  0  0
 22 23  1  0  0  0  0
 22 21  2  0  0  0  0
 23 18  2  0  0  0  0
M  END
>  <minimizedAffinity>
-6.95195532

$$$$
