
 OpenBabel09122222393D

 23 24  0  0  0  0  0  0  0  0999 V2000
    9.1580   -2.0280    1.8510 C   0  0  0  0  0  0  0  0  0  0  0  0
    8.3660   -3.0850    2.3080 C   0  0  0  0  0  3  0  0  0  0  0  0
    8.2390   -4.2430    1.5440 C   0  0  0  0  0  3  0  0  0  0  0  0
    8.9080   -4.3540    0.3190 C   0  0  0  0  0  3  0  0  0  0  0  0
    9.7140   -3.3180   -0.1670 C   0  0  0  0  0  0  0  0  0  0  0  0
    9.8290   -2.1630    0.6230 C   0  0  0  0  0  3  0  0  0  0  0  0
    9.4380    0.2960    1.8160 C   0  0  0  0  0  2  0  0  0  0  0  0
    9.2920   -0.7640    2.6530 C   0  0  0  0  0  0  0  0  0  0  0  0
    9.2640   -0.8390    3.9150 O   0  0  0  0  0  0  0  0  0  0  0  0
    9.6070    1.7680    2.1120 C   0  0  0  0  0  0  0  0  0  0  0  0
    9.4660    2.3110    3.2060 O   0  0  0  0  0  0  0  0  0  0  0  0
    9.2270    3.6640    0.6060 O   0  0  0  0  0  1  0  0  0  0  0  0
   10.0150    2.7080    0.9310 C   0  0  0  0  0  0  0  0  0  0  0  0
   11.1300    2.4660    0.3470 O   0  0  0  0  0  0  0  0  0  0  0  0
   10.4150   -3.3770   -1.3590 N   0  0  0  0  0  0  0  0  0  0  0  0
    9.8890   -3.7130   -2.1570 H   0  0  0  0  0  0  0  0  0  0  0  0
   11.8260   -3.1430   -1.5510 C   0  0  0  0  0  2  0  0  0  0  0  0
   12.1220   -1.7150   -1.9590 C   0  0  0  0  0  0  0  0  0  0  0  0
   13.4130   -1.1750   -1.8690 C   0  0  0  0  0  3  0  0  0  0  0  0
   13.6580    0.1560   -2.2140 C   0  0  0  0  0  3  0  0  0  0  0  0
   12.6110    0.9700   -2.6410 C   0  0  0  0  0  3  0  0  0  0  0  0
   11.3200    0.4540   -2.7220 C   0  0  0  0  0  3  0  0  0  0  0  0
   11.0760   -0.8780   -2.3780 C   0  0  0  0  0  3  0  0  0  0  0  0
  1  2  1  0  0  0  0
  1  8  1  0  0  0  0
  3  2  2  0  0  0  0
  4  3  1  0  0  0  0
  5  4  2  0  0  0  0
  5  6  1  0  0  0  0
  6  1  2  0  0  0  0
  7 10  1  0  0  0  0
  7  8  1  0  0  0  0
  8  9  2  0  0  0  0
 10 11  2  0  0  0  0
 12 13  1  0  0  0  0
 13 10  1  0  0  0  0
 14 13  2  0  0  0  0
 15  5  1  0  0  0  0
 16 15  1  0  0  0  0
 17 15  1  0  0  0  0
 18 19  1  0  0  0  0
 18 17  1  0  0  0  0
 20 19  2  0  0  0  0
 21 20  1  0  0  0  0
 22 21  2  0  0  0  0
 22 23  1  0  0  0  0
 23 18  2  0  0  0  0
M  END
>  <minimizedAffinity>
-7.46522141

$$$$
