
 OpenBabel09122222393D

 23 24  0  0  0  0  0  0  0  0999 V2000
   10.6150   -1.8370   -0.7730 C   0  0  0  0  0  0  0  0  0  0  0  0
   11.4820   -2.0400   -1.8510 C   0  0  0  0  0  3  0  0  0  0  0  0
   11.9490   -0.9530   -2.5860 C   0  0  0  0  0  3  0  0  0  0  0  0
   11.5550    0.3470   -2.2460 C   0  0  0  0  0  3  0  0  0  0  0  0
   10.6930    0.5890   -1.1710 C   0  0  0  0  0  0  0  0  0  0  0  0
   10.2410   -0.5230   -0.4420 C   0  0  0  0  0  3  0  0  0  0  0  0
    9.5270   -2.5490    1.1730 C   0  0  0  0  0  2  0  0  0  0  0  0
   10.0880   -2.9990    0.0210 C   0  0  0  0  0  0  0  0  0  0  0  0
   10.2300   -4.1670   -0.4430 O   0  0  0  0  0  0  0  0  0  0  0  0
    8.8630   -3.3000    2.3030 C   0  0  0  0  0  0  0  0  0  0  0  0
    7.9620   -4.1300    2.1950 O   0  0  0  0  0  0  0  0  0  0  0  0
   10.5790   -2.6680    3.9340 O   0  0  0  0  0  0  0  0  0  0  0  0
    9.3610   -3.0200    3.7590 C   0  0  0  0  0  0  0  0  0  0  0  0
    8.5100   -3.1600    4.7070 O   0  0  0  0  0  1  0  0  0  0  0  0
   10.2860    1.8510   -0.7740 N   0  0  0  0  0  0  0  0  0  0  0  0
    9.2960    2.0400   -0.8760 H   0  0  0  0  0  0  0  0  0  0  0  0
   11.1290    2.9480   -0.3650 C   0  0  0  0  0  2  0  0  0  0  0  0
   11.3620    2.9690    1.1310 C   0  0  0  0  0  0  0  0  0  0  0  0
   12.5780    3.3990    1.6810 C   0  0  0  0  0  3  0  0  0  0  0  0
   12.7870    3.3750    3.0620 C   0  0  0  0  0  3  0  0  0  0  0  0
   11.7870    2.9060    3.9110 C   0  0  0  0  0  3  0  0  0  0  0  0
   10.5790    2.4600    3.3800 C   0  0  0  0  0  3  0  0  0  0  0  0
   10.3700    2.4870    1.9990 C   0  0  0  0  0  3  0  0  0  0  0  0
  1  6  1  0  0  0  0
  1  8  1  0  0  0  0
  2  1  2  0  0  0  0
  3  4  2  0  0  0  0
  3  2  1  0  0  0  0
  4  5  1  0  0  0  0
  5 15  1  0  0  0  0
  5  6  2  0  0  0  0
  7 10  1  0  0  0  0
  8  7  1  0  0  0  0
  9  8  2  0  0  0  0
 10 13  1  0  0  0  0
 11 10  2  0  0  0  0
 13 12  2  0  0  0  0
 13 14  1  0  0  0  0
 15 17  1  0  0  0  0
 16 15  1  0  0  0  0
 17 18  1  0  0  0  0
 18 19  2  0  0  0  0
 18 23  1  0  0  0  0
 19 20  1  0  0  0  0
 20 21  2  0  0  0  0
 22 21  1  0  0  0  0
 23 22  2  0  0  0  0
M  END
>  <minimizedAffinity>
-6.81116962

$$$$
