
 OpenBabel09122222393D

 23 24  0  0  0  0  0  0  0  0999 V2000
    9.9290   -0.6120    0.2310 C   0  0  0  0  0  0  0  0  0  0  0  0
    9.9890    0.6990   -0.2510 C   0  0  0  0  0  3  0  0  0  0  0  0
   10.7030    0.9830   -1.4120 C   0  0  0  0  0  3  0  0  0  0  0  0
   11.3580   -0.0430   -2.1040 C   0  0  0  0  0  3  0  0  0  0  0  0
   11.3150   -1.3670   -1.6550 C   0  0  0  0  0  0  0  0  0  0  0  0
   10.5850   -1.6290   -0.4840 C   0  0  0  0  0  3  0  0  0  0  0  0
    9.1570   -2.2800    1.6810 C   0  0  0  0  0  2  0  0  0  0  0  0
    9.1790   -0.9350    1.4930 C   0  0  0  0  0  0  0  0  0  0  0  0
    8.6890    0.0150    2.1690 O   0  0  0  0  0  0  0  0  0  0  0  0
    8.5400   -3.1100    2.7830 C   0  0  0  0  0  0  0  0  0  0  0  0
    7.5970   -3.8890    2.6660 O   0  0  0  0  0  0  0  0  0  0  0  0
   10.4010   -2.7270    4.3320 O   0  0  0  0  0  0  0  0  0  0  0  0
    9.1540   -2.9900    4.2170 C   0  0  0  0  0  0  0  0  0  0  0  0
    8.3610   -3.1650    5.2090 O   0  0  0  0  0  1  0  0  0  0  0  0
   11.9240   -2.4260   -2.3060 N   0  0  0  0  0  0  0  0  0  0  0  0
   11.5040   -3.3340   -2.1460 H   0  0  0  0  0  0  0  0  0  0  0  0
   13.1500   -2.3910   -3.0660 C   0  0  0  0  0  2  0  0  0  0  0  0
   14.3760   -2.3380   -2.1800 C   0  0  0  0  0  0  0  0  0  0  0  0
   15.1430   -1.1710   -2.0510 C   0  0  0  0  0  3  0  0  0  0  0  0
   16.2920   -1.1540   -1.2580 C   0  0  0  0  0  3  0  0  0  0  0  0
   16.6990   -2.3090   -0.5930 C   0  0  0  0  0  3  0  0  0  0  0  0
   15.9570   -3.4810   -0.7220 C   0  0  0  0  0  3  0  0  0  0  0  0
   14.8060   -3.4970   -1.5140 C   0  0  0  0  0  3  0  0  0  0  0  0
  1  8  1  0  0  0  0
  2  1  1  0  0  0  0
  3  2  2  0  0  0  0
  4  5  2  0  0  0  0
  4  3  1  0  0  0  0
  5  6  1  0  0  0  0
  6  1  2  0  0  0  0
  7 10  1  0  0  0  0
  8  7  1  0  0  0  0
  8  9  2  0  0  0  0
 10 13  1  0  0  0  0
 11 10  2  0  0  0  0
 13 12  2  0  0  0  0
 13 14  1  0  0  0  0
 15 16  1  0  0  0  0
 15  5  1  0  0  0  0
 17 15  1  0  0  0  0
 17 18  1  0  0  0  0
 18 19  2  0  0  0  0
 18 23  1  0  0  0  0
 19 20  1  0  0  0  0
 20 21  2  0  0  0  0
 22 21  1  0  0  0  0
 23 22  2  0  0  0  0
M  END
>  <minimizedAffinity>
-7.32968855

$$$$
