
 OpenBabel09122218333D

 23 24  0  0  0  0  0  0  0  0999 V2000
    9.1580   -2.0280    1.8510 C   0  0  0  0  0  0  0  0  0  0  0  0
    8.3660   -3.0850    2.3080 C   0  0  0  0  0  3  0  0  0  0  0  0
    8.2390   -4.2430    1.5440 C   0  0  0  0  0  3  0  0  0  0  0  0
    8.9080   -4.3540    0.3190 C   0  0  0  0  0  3  0  0  0  0  0  0
    9.7140   -3.3180   -0.1670 C   0  0  0  0  0  0  0  0  0  0  0  0
    9.8290   -2.1630    0.6230 C   0  0  0  0  0  3  0  0  0  0  0  0
    9.4380    0.2960    1.8160 C   0  0  0  0  0  2  0  0  0  0  0  0
    9.2920   -0.7640    2.6530 C   0  0  0  0  0  0  0  0  0  0  0  0
    9.2640   -0.8390    3.9150 O   0  0  0  0  0  0  0  0  0  0  0  0
    9.6070    1.7680    2.1120 C   0  0  0  0  0  0  0  0  0  0  0  0
    9.4660    2.3110    3.2060 O   0  0  0  0  0  0  0  0  0  0  0  0
    9.2270    3.6640    0.6060 O   0  0  0  0  0  1  0  0  0  0  0  0
   10.0150    2.7080    0.9310 C   0  0  0  0  0  0  0  0  0  0  0  0
   11.1300    2.4660    0.3470 O   0  0  0  0  0  0  0  0  0  0  0  0
   10.4150   -3.3770   -1.3590 N   0  0  0  0  0  0  0  0  0  0  0  0
    9.8890   -3.7130   -2.1570 H   0  0  0  0  0  0  0  0  0  0  0  0
   11.8260   -3.1430   -1.5510 C   0  0  0  0  0  2  0  0  0  0  0  0
   12.1220   -1.7150   -1.9590 C   0  0  0  0  0  0  0  0  0  0  0  0
   13.4130   -1.1750   -1.8690 C   0  0  0  0  0  3  0  0  0  0  0  0
   13.6580    0.1560   -2.2140 C   0  0  0  0  0  3  0  0  0  0  0  0
   12.6110    0.9700   -2.6410 C   0  0  0  0  0  3  0  0  0  0  0  0
   11.3200    0.4540   -2.7220 C   0  0  0  0  0  3  0  0  0  0  0  0
   11.0760   -0.8780   -2.3780 C   0  0  0  0  0  3  0  0  0  0  0  0
  1  2  1  0  0  0  0
  1  8  1  0  0  0  0
  3  2  2  0  0  0  0
  4  3  1  0  0  0  0
  5  4  2  0  0  0  0
  5  6  1  0  0  0  0
  6  1  2  0  0  0  0
  7 10  1  0  0  0  0
  7  8  1  0  0  0  0
  8  9  2  0  0  0  0
 10 11  2  0  0  0  0
 12 13  1  0  0  0  0
 13 10  1  0  0  0  0
 14 13  2  0  0  0  0
 15  5  1  0  0  0  0
 16 15  1  0  0  0  0
 17 15  1  0  0  0  0
 18 19  1  0  0  0  0
 18 17  1  0  0  0  0
 20 19  2  0  0  0  0
 21 20  1  0  0  0  0
 22 21  2  0  0  0  0
 22 23  1  0  0  0  0
 23 18  2  0  0  0  0
M  END
>  <minimizedAffinity>
-7.46522141

$$$$

 OpenBabel09122218333D

 23 24  0  0  0  0  0  0  0  0999 V2000
    9.9290   -0.6120    0.2310 C   0  0  0  0  0  0  0  0  0  0  0  0
    9.9890    0.6990   -0.2510 C   0  0  0  0  0  3  0  0  0  0  0  0
   10.7030    0.9830   -1.4120 C   0  0  0  0  0  3  0  0  0  0  0  0
   11.3580   -0.0430   -2.1040 C   0  0  0  0  0  3  0  0  0  0  0  0
   11.3150   -1.3670   -1.6550 C   0  0  0  0  0  0  0  0  0  0  0  0
   10.5850   -1.6290   -0.4840 C   0  0  0  0  0  3  0  0  0  0  0  0
    9.1570   -2.2800    1.6810 C   0  0  0  0  0  2  0  0  0  0  0  0
    9.1790   -0.9350    1.4930 C   0  0  0  0  0  0  0  0  0  0  0  0
    8.6890    0.0150    2.1690 O   0  0  0  0  0  0  0  0  0  0  0  0
    8.5400   -3.1100    2.7830 C   0  0  0  0  0  0  0  0  0  0  0  0
    7.5970   -3.8890    2.6660 O   0  0  0  0  0  0  0  0  0  0  0  0
   10.4010   -2.7270    4.3320 O   0  0  0  0  0  0  0  0  0  0  0  0
    9.1540   -2.9900    4.2170 C   0  0  0  0  0  0  0  0  0  0  0  0
    8.3610   -3.1650    5.2090 O   0  0  0  0  0  1  0  0  0  0  0  0
   11.9240   -2.4260   -2.3060 N   0  0  0  0  0  0  0  0  0  0  0  0
   11.5040   -3.3340   -2.1460 H   0  0  0  0  0  0  0  0  0  0  0  0
   13.1500   -2.3910   -3.0660 C   0  0  0  0  0  2  0  0  0  0  0  0
   14.3760   -2.3380   -2.1800 C   0  0  0  0  0  0  0  0  0  0  0  0
   15.1430   -1.1710   -2.0510 C   0  0  0  0  0  3  0  0  0  0  0  0
   16.2920   -1.1540   -1.2580 C   0  0  0  0  0  3  0  0  0  0  0  0
   16.6990   -2.3090   -0.5930 C   0  0  0  0  0  3  0  0  0  0  0  0
   15.9570   -3.4810   -0.7220 C   0  0  0  0  0  3  0  0  0  0  0  0
   14.8060   -3.4970   -1.5140 C   0  0  0  0  0  3  0  0  0  0  0  0
  1  8  1  0  0  0  0
  2  1  1  0  0  0  0
  3  2  2  0  0  0  0
  4  5  2  0  0  0  0
  4  3  1  0  0  0  0
  5  6  1  0  0  0  0
  6  1  2  0  0  0  0
  7 10  1  0  0  0  0
  8  7  1  0  0  0  0
  8  9  2  0  0  0  0
 10 13  1  0  0  0  0
 11 10  2  0  0  0  0
 13 12  2  0  0  0  0
 13 14  1  0  0  0  0
 15 16  1  0  0  0  0
 15  5  1  0  0  0  0
 17 15  1  0  0  0  0
 17 18  1  0  0  0  0
 18 19  2  0  0  0  0
 18 23  1  0  0  0  0
 19 20  1  0  0  0  0
 20 21  2  0  0  0  0
 22 21  1  0  0  0  0
 23 22  2  0  0  0  0
M  END
>  <minimizedAffinity>
-7.32968855

$$$$

 OpenBabel09122218333D

 23 24  0  0  0  0  0  0  0  0999 V2000
    9.6470   -0.6370    0.7550 C   0  0  0  0  0  0  0  0  0  0  0  0
    9.0190   -1.6020    1.5480 C   0  0  0  0  0  3  0  0  0  0  0  0
    9.1240   -2.9510    1.2180 C   0  0  0  0  0  3  0  0  0  0  0  0
    9.8630   -3.3460    0.0960 C   0  0  0  0  0  3  0  0  0  0  0  0
   10.5090   -2.4080   -0.7170 C   0  0  0  0  0  0  0  0  0  0  0  0
   10.3920   -1.0550   -0.3610 C   0  0  0  0  0  3  0  0  0  0  0  0
   10.2520    1.5540    0.1950 C   0  0  0  0  0  2  0  0  0  0  0  0
    9.5300    0.8250    1.0850 C   0  0  0  0  0  0  0  0  0  0  0  0
    8.8340    1.1690    2.0830 O   0  0  0  0  0  0  0  0  0  0  0  0
   10.4610    3.0470    0.0860 C   0  0  0  0  0  0  0  0  0  0  0  0
    9.6000    3.9140    0.2140 O   0  0  0  0  0  0  0  0  0  0  0  0
   12.8270    2.7050   -0.4570 O   0  0  0  0  0  0  0  0  0  0  0  0
   11.9090    3.5610   -0.2050 C   0  0  0  0  0  0  0  0  0  0  0  0
   12.0980    4.8290   -0.1760 O   0  0  0  0  0  1  0  0  0  0  0  0
   11.2700   -2.7380   -1.8250 N   0  0  0  0  0  0  0  0  0  0  0  0
   10.8980   -2.4270   -2.7160 H   0  0  0  0  0  0  0  0  0  0  0  0
   12.4430   -3.5760   -1.8570 C   0  0  0  0  0  2  0  0  0  0  0  0
   13.7200   -2.7870   -1.6590 C   0  0  0  0  0  0  0  0  0  0  0  0
   13.9360   -1.5600   -2.3030 C   0  0  0  0  0  3  0  0  0  0  0  0
   15.1360   -0.8660   -2.1360 C   0  0  0  0  0  3  0  0  0  0  0  0
   16.1450   -1.3970   -1.3350 C   0  0  0  0  0  3  0  0  0  0  0  0
   15.9540   -2.6220   -0.7020 C   0  0  0  0  0  3  0  0  0  0  0  0
   14.7510   -3.3150   -0.8660 C   0  0  0  0  0  3  0  0  0  0  0  0
  1  8  1  0  0  0  0
  1  2  1  0  0  0  0
  3  2  2  0  0  0  0
  4  3  1  0  0  0  0
  5  6  1  0  0  0  0
  5  4  2  0  0  0  0
  6  1  2  0  0  0  0
  7  8  1  0  0  0  0
  8  9  2  0  0  0  0
 10  7  1  0  0  0  0
 10 11  2  0  0  0  0
 12 13  2  0  0  0  0
 13 14  1  0  0  0  0
 13 10  1  0  0  0  0
 15  5  1  0  0  0  0
 16 15  1  0  0  0  0
 17 15  1  0  0  0  0
 17 18  1  0  0  0  0
 18 23  1  0  0  0  0
 19 20  1  0  0  0  0
 19 18  2  0  0  0  0
 20 21  2  0  0  0  0
 21 22  1  0  0  0  0
 23 22  2  0  0  0  0
M  END
>  <minimizedAffinity>
-7.24668598

$$$$

 OpenBabel09122218333D

 23 24  0  0  0  0  0  0  0  0999 V2000
    9.7000   -1.9600    1.3560 C   0  0  0  0  0  0  0  0  0  0  0  0
    9.4410   -0.5980    1.1670 C   0  0  0  0  0  3  0  0  0  0  0  0
    9.8330    0.0290   -0.0130 C   0  0  0  0  0  3  0  0  0  0  0  0
   10.4830   -0.7010   -1.0160 C   0  0  0  0  0  3  0  0  0  0  0  0
   10.7530   -2.0650   -0.8640 C   0  0  0  0  0  0  0  0  0  0  0  0
   10.3440   -2.6760    0.3330 C   0  0  0  0  0  3  0  0  0  0  0  0
    9.9110   -2.0500    3.6850 C   0  0  0  0  0  2  0  0  0  0  0  0
    9.3000   -2.6490    2.6290 C   0  0  0  0  0  0  0  0  0  0  0  0
    8.5120   -3.6360    2.5660 O   0  0  0  0  0  0  0  0  0  0  0  0
    9.8440   -2.3560    5.1630 C   0  0  0  0  0  0  0  0  0  0  0  0
   10.7990   -2.5830    5.9030 O   0  0  0  0  0  0  0  0  0  0  0  0
    7.7770   -3.4750    5.8570 O   0  0  0  0  0  0  0  0  0  0  0  0
    8.4360   -2.3770    5.8420 C   0  0  0  0  0  0  0  0  0  0  0  0
    8.0140   -1.2800    6.3530 O   0  0  0  0  0  1  0  0  0  0  0  0
   11.3730   -2.8430   -1.8260 N   0  0  0  0  0  0  0  0  0  0  0  0
   10.8830   -2.9120   -2.7110 H   0  0  0  0  0  0  0  0  0  0  0  0
   12.5530   -3.6570   -1.6610 C   0  0  0  0  0  2  0  0  0  0  0  0
   13.8130   -2.8270   -1.5410 C   0  0  0  0  0  0  0  0  0  0  0  0
   13.9730   -1.6230   -2.2430 C   0  0  0  0  0  3  0  0  0  0  0  0
   15.1590   -0.8910   -2.1470 C   0  0  0  0  0  3  0  0  0  0  0  0
   16.2070   -1.3610   -1.3600 C   0  0  0  0  0  3  0  0  0  0  0  0
   16.0720   -2.5620   -0.6680 C   0  0  0  0  0  3  0  0  0  0  0  0
   14.8840   -3.2930   -0.7620 C   0  0  0  0  0  3  0  0  0  0  0  0
  1  8  1  0  0  0  0
  2  1  1  0  0  0  0
  3  2  2  0  0  0  0
  4  5  2  0  0  0  0
  4  3  1  0  0  0  0
  5  6  1  0  0  0  0
  6  1  2  0  0  0  0
  7 10  1  0  0  0  0
  8  7  1  0  0  0  0
  9  8  2  0  0  0  0
 10 13  1  0  0  0  0
 10 11  2  0  0  0  0
 13 12  2  0  0  0  0
 13 14  1  0  0  0  0
 15 17  1  0  0  0  0
 15  5  1  0  0  0  0
 16 15  1  0  0  0  0
 17 18  1  0  0  0  0
 18 23  1  0  0  0  0
 19 20  1  0  0  0  0
 19 18  2  0  0  0  0
 20 21  2  0  0  0  0
 21 22  1  0  0  0  0
 23 22  2  0  0  0  0
M  END
>  <minimizedAffinity>
-7.20581675

$$$$

 OpenBabel09122218333D

 23 24  0  0  0  0  0  0  0  0999 V2000
    9.5530   -0.4440    1.0150 C   0  0  0  0  0  0  0  0  0  0  0  0
    8.9150   -1.3880    1.8270 C   0  0  0  0  0  3  0  0  0  0  0  0
    8.9610   -2.7390    1.4950 C   0  0  0  0  0  3  0  0  0  0  0  0
    9.6500   -3.1590    0.3500 C   0  0  0  0  0  3  0  0  0  0  0  0
   10.3040   -2.2440   -0.4820 C   0  0  0  0  0  0  0  0  0  0  0  0
   10.2470   -0.8880   -0.1230 C   0  0  0  0  0  3  0  0  0  0  0  0
   10.1550    1.7310    0.3950 C   0  0  0  0  0  2  0  0  0  0  0  0
    9.4990    1.0200    1.3490 C   0  0  0  0  0  0  0  0  0  0  0  0
    8.9020    1.3820    2.4030 O   0  0  0  0  0  0  0  0  0  0  0  0
   10.3880    3.2180    0.2620 C   0  0  0  0  0  0  0  0  0  0  0  0
    9.5280    4.0750    0.0720 O   0  0  0  0  0  0  0  0  0  0  0  0
   12.3470    3.9220    1.5570 O   0  0  0  0  0  1  0  0  0  0  0  0
   11.8570    3.7410    0.3880 C   0  0  0  0  0  0  0  0  0  0  0  0
   12.4960    3.9600   -0.7010 O   0  0  0  0  0  0  0  0  0  0  0  0
   11.0170   -2.6000   -1.6140 N   0  0  0  0  0  0  0  0  0  0  0  0
   10.6370   -2.2640   -2.4910 H   0  0  0  0  0  0  0  0  0  0  0  0
   12.1480   -3.4930   -1.6850 C   0  0  0  0  0  2  0  0  0  0  0  0
   13.4690   -2.7550   -1.6360 C   0  0  0  0  0  0  0  0  0  0  0  0
   14.5770   -3.2700   -0.9480 C   0  0  0  0  0  3  0  0  0  0  0  0
   15.7750   -2.5560   -0.8840 C   0  0  0  0  0  3  0  0  0  0  0  0
   15.8780   -1.3090   -1.4950 C   0  0  0  0  0  3  0  0  0  0  0  0
   14.7830   -0.7750   -2.1700 C   0  0  0  0  0  3  0  0  0  0  0  0
   13.5850   -1.4910   -2.2360 C   0  0  0  0  0  3  0  0  0  0  0  0
  1  8  1  0  0  0  0
  1  2  1  0  0  0  0
  3  2  2  0  0  0  0
  4  3  1  0  0  0  0
  5  6  1  0  0  0  0
  5  4  2  0  0  0  0
  6  1  2  0  0  0  0
  7  8  1  0  0  0  0
  8  9  2  0  0  0  0
 10 13  1  0  0  0  0
 10  7  1  0  0  0  0
 11 10  2  0  0  0  0
 13 12  1  0  0  0  0
 14 13  2  0  0  0  0
 15  5  1  0  0  0  0
 16 15  1  0  0  0  0
 17 18  1  0  0  0  0
 17 15  1  0  0  0  0
 18 19  1  0  0  0  0
 19 20  2  0  0  0  0
 21 20  1  0  0  0  0
 22 21  2  0  0  0  0
 23 22  1  0  0  0  0
 23 18  2  0  0  0  0
M  END
>  <minimizedAffinity>
-7.19735384

$$$$

 OpenBabel09122218333D

 23 24  0  0  0  0  0  0  0  0999 V2000
    9.2870   -1.8890    1.6460 C   0  0  0  0  0  0  0  0  0  0  0  0
    8.4730   -2.9640    2.0160 C   0  0  0  0  0  3  0  0  0  0  0  0
    8.4160   -4.1030    1.2170 C   0  0  0  0  0  3  0  0  0  0  0  0
    9.1760   -4.1780    0.0430 C   0  0  0  0  0  3  0  0  0  0  0  0
   10.0060   -3.1230   -0.3550 C   0  0  0  0  0  0  0  0  0  0  0  0
   10.0500   -1.9880    0.4700 C   0  0  0  0  0  3  0  0  0  0  0  0
    9.4970    0.4420    1.6860 C   0  0  0  0  0  2  0  0  0  0  0  0
    9.3470   -0.6450    2.4870 C   0  0  0  0  0  0  0  0  0  0  0  0
    9.2670   -0.7560    3.7450 O   0  0  0  0  0  0  0  0  0  0  0  0
    9.6090    1.9090    2.0290 C   0  0  0  0  0  0  0  0  0  0  0  0
    9.3740    2.4210    3.1220 O   0  0  0  0  0  0  0  0  0  0  0  0
   11.2480    2.7330    0.4030 O   0  0  0  0  0  0  0  0  0  0  0  0
   10.0800    2.8880    0.9040 C   0  0  0  0  0  0  0  0  0  0  0  0
    9.2580    3.8020    0.5410 O   0  0  0  0  0  1  0  0  0  0  0  0
   10.7950   -3.1470   -1.4920 N   0  0  0  0  0  0  0  0  0  0  0  0
   10.3770   -2.7400   -2.3200 H   0  0  0  0  0  0  0  0  0  0  0  0
   12.0740   -3.7960   -1.6500 C   0  0  0  0  0  2  0  0  0  0  0  0
   13.2170   -2.8070   -1.7260 C   0  0  0  0  0  0  0  0  0  0  0  0
   14.5040   -3.1290   -1.2710 C   0  0  0  0  0  3  0  0  0  0  0  0
   15.5360   -2.1890   -1.3160 C   0  0  0  0  0  3  0  0  0  0  0  0
   15.2910   -0.9070   -1.8040 C   0  0  0  0  0  3  0  0  0  0  0  0
   14.0160   -0.5650   -2.2460 C   0  0  0  0  0  3  0  0  0  0  0  0
   12.9840   -1.5070   -2.2030 C   0  0  0  0  0  3  0  0  0  0  0  0
  1  2  1  0  0  0  0
  1  8  1  0  0  0  0
  3  2  2  0  0  0  0
  4  3  1  0  0  0  0
  5  4  2  0  0  0  0
  5  6  1  0  0  0  0
  6  1  2  0  0  0  0
  7 10  1  0  0  0  0
  7  8  1  0  0  0  0
  8  9  2  0  0  0  0
 10 11  2  0  0  0  0
 12 13  2  0  0  0  0
 13 10  1  0  0  0  0
 14 13  1  0  0  0  0
 15  5  1  0  0  0  0
 16 15  1  0  0  0  0
 17 15  1  0  0  0  0
 18 17  1  0  0  0  0
 18 19  1  0  0  0  0
 20 19  2  0  0  0  0
 21 20  1  0  0  0  0
 22 23  1  0  0  0  0
 22 21  2  0  0  0  0
 23 18  2  0  0  0  0
M  END
>  <minimizedAffinity>
-6.95195532

$$$$

 OpenBabel09122218333D

 23 24  0  0  0  0  0  0  0  0999 V2000
   12.4150    0.0690   -1.9950 C   0  0  0  0  0  0  0  0  0  0  0  0
   13.6230   -0.5240   -2.3770 C   0  0  0  0  0  3  0  0  0  0  0  0
   13.7560   -1.9100   -2.3560 C   0  0  0  0  0  3  0  0  0  0  0  0
   12.6820   -2.7140   -1.9580 C   0  0  0  0  0  3  0  0  0  0  0  0
   11.4570   -2.1560   -1.5740 C   0  0  0  0  0  0  0  0  0  0  0  0
   11.3460   -0.7560   -1.6080 C   0  0  0  0  0  3  0  0  0  0  0  0
   11.6760    1.9620   -0.8330 C   0  0  0  0  0  2  0  0  0  0  0  0
   12.2590    1.5640   -1.9940 C   0  0  0  0  0  0  0  0  0  0  0  0
   12.6500    2.2180   -3.0030 O   0  0  0  0  0  0  0  0  0  0  0  0
   11.3040    3.3410   -0.3410 C   0  0  0  0  0  0  0  0  0  0  0  0
   11.9830    4.3600   -0.4480 O   0  0  0  0  0  0  0  0  0  0  0  0
    9.0990    4.3830   -0.0970 O   0  0  0  0  0  0  0  0  0  0  0  0
    9.9190    3.5150    0.3640 C   0  0  0  0  0  0  0  0  0  0  0  0
    9.6800    2.7680    1.3780 O   0  0  0  0  0  1  0  0  0  0  0  0
   10.3540   -2.8990   -1.1910 N   0  0  0  0  0  0  0  0  0  0  0  0
    9.5540   -2.8400   -1.8110 H   0  0  0  0  0  0  0  0  0  0  0  0
   10.1800   -3.6270    0.0420 C   0  0  0  0  0  2  0  0  0  0  0  0
    9.8940   -2.7130    1.2150 C   0  0  0  0  0  0  0  0  0  0  0  0
    9.1790   -1.5170    1.0600 C   0  0  0  0  0  3  0  0  0  0  0  0
    8.9570   -0.6700    2.1480 C   0  0  0  0  0  3  0  0  0  0  0  0
    9.4610   -1.0000    3.4040 C   0  0  0  0  0  3  0  0  0  0  0  0
   10.1870   -2.1770    3.5730 C   0  0  0  0  0  3  0  0  0  0  0  0
   10.4060   -3.0250    2.4840 C   0  0  0  0  0  3  0  0  0  0  0  0
  1  8  1  0  0  0  0
  1  6  1  0  0  0  0
  2  3  1  0  0  0  0
  2  1  2  0  0  0  0
  3  4  2  0  0  0  0
  4  5  1  0  0  0  0
  5 15  1  0  0  0  0
  6  5  2  0  0  0  0
  7 10  1  0  0  0  0
  8  7  1  0  0  0  0
  9  8  2  0  0  0  0
 10 13  1  0  0  0  0
 11 10  2  0  0  0  0
 12 13  2  0  0  0  0
 13 14  1  0  0  0  0
 15 17  1  0  0  0  0
 16 15  1  0  0  0  0
 17 18  1  0  0  0  0
 18 23  1  0  0  0  0
 19 18  2  0  0  0  0
 19 20  1  0  0  0  0
 20 21  2  0  0  0  0
 21 22  1  0  0  0  0
 23 22  2  0  0  0  0
M  END
>  <minimizedAffinity>
-6.93784666

$$$$

 OpenBabel09122218333D

 23 24  0  0  0  0  0  0  0  0999 V2000
   10.8570   -2.7020   -1.1170 C   0  0  0  0  0  0  0  0  0  0  0  0
   12.0260   -3.3310   -1.5590 C   0  0  0  0  0  3  0  0  0  0  0  0
   12.9730   -2.6110   -2.2840 C   0  0  0  0  0  3  0  0  0  0  0  0
   12.7610   -1.2570   -2.5680 C   0  0  0  0  0  3  0  0  0  0  0  0
   11.6060   -0.5940   -2.1370 C   0  0  0  0  0  0  0  0  0  0  0  0
   10.6690   -1.3400   -1.4040 C   0  0  0  0  0  3  0  0  0  0  0  0
    9.6960   -2.9480    0.9000 C   0  0  0  0  0  2  0  0  0  0  0  0
    9.8160   -3.4670   -0.3490 C   0  0  0  0  0  0  0  0  0  0  0  0
    9.2310   -4.4350   -0.9150 O   0  0  0  0  0  0  0  0  0  0  0  0
    8.8010   -3.3480    2.0510 C   0  0  0  0  0  0  0  0  0  0  0  0
    7.9310   -4.2160    2.0280 O   0  0  0  0  0  0  0  0  0  0  0  0
    9.2700   -1.3590    3.4030 O   0  0  0  0  0  0  0  0  0  0  0  0
    8.9910   -2.6080    3.4150 C   0  0  0  0  0  0  0  0  0  0  0  0
    8.8540   -3.3030    4.4830 O   0  0  0  0  0  1  0  0  0  0  0  0
   11.3510    0.7460   -2.3680 N   0  0  0  0  0  0  0  0  0  0  0  0
   10.5740    0.9400   -2.9900 H   0  0  0  0  0  0  0  0  0  0  0  0
   12.1430    1.8710   -1.9330 C   0  0  0  0  0  2  0  0  0  0  0  0
   11.7180    2.3830   -0.5730 C   0  0  0  0  0  0  0  0  0  0  0  0
   10.4400    2.1270   -0.0560 C   0  0  0  0  0  3  0  0  0  0  0  0
   10.0540    2.6410    1.1850 C   0  0  0  0  0  3  0  0  0  0  0  0
   10.9360    3.4300    1.9190 C   0  0  0  0  0  3  0  0  0  0  0  0
   12.2040    3.7060    1.4130 C   0  0  0  0  0  3  0  0  0  0  0  0
   12.5910    3.1910    0.1730 C   0  0  0  0  0  3  0  0  0  0  0  0
  1  8  1  0  0  0  0
  2  1  2  0  0  0  0
  3  2  1  0  0  0  0
  4  3  2  0  0  0  0
  4  5  1  0  0  0  0
  5  6  2  0  0  0  0
  6  1  1  0  0  0  0
  7 10  1  0  0  0  0
  8  7  1  0  0  0  0
  9  8  2  0  0  0  0
 10 13  1  0  0  0  0
 11 10  2  0  0  0  0
 12 13  2  0  0  0  0
 13 14  1  0  0  0  0
 15  5  1  0  0  0  0
 15 17  1  0  0  0  0
 16 15  1  0  0  0  0
 17 18  1  0  0  0  0
 18 19  2  0  0  0  0
 18 23  1  0  0  0  0
 19 20  1  0  0  0  0
 20 21  2  0  0  0  0
 22 21  1  0  0  0  0
 23 22  2  0  0  0  0
M  END
>  <minimizedAffinity>
-6.92090988

$$$$

 OpenBabel09122218333D

 23 24  0  0  0  0  0  0  0  0999 V2000
   10.6150   -1.8370   -0.7730 C   0  0  0  0  0  0  0  0  0  0  0  0
   11.4820   -2.0400   -1.8510 C   0  0  0  0  0  3  0  0  0  0  0  0
   11.9490   -0.9530   -2.5860 C   0  0  0  0  0  3  0  0  0  0  0  0
   11.5550    0.3470   -2.2460 C   0  0  0  0  0  3  0  0  0  0  0  0
   10.6930    0.5890   -1.1710 C   0  0  0  0  0  0  0  0  0  0  0  0
   10.2410   -0.5230   -0.4420 C   0  0  0  0  0  3  0  0  0  0  0  0
    9.5270   -2.5490    1.1730 C   0  0  0  0  0  2  0  0  0  0  0  0
   10.0880   -2.9990    0.0210 C   0  0  0  0  0  0  0  0  0  0  0  0
   10.2300   -4.1670   -0.4430 O   0  0  0  0  0  0  0  0  0  0  0  0
    8.8630   -3.3000    2.3030 C   0  0  0  0  0  0  0  0  0  0  0  0
    7.9620   -4.1300    2.1950 O   0  0  0  0  0  0  0  0  0  0  0  0
   10.5790   -2.6680    3.9340 O   0  0  0  0  0  0  0  0  0  0  0  0
    9.3610   -3.0200    3.7590 C   0  0  0  0  0  0  0  0  0  0  0  0
    8.5100   -3.1600    4.7070 O   0  0  0  0  0  1  0  0  0  0  0  0
   10.2860    1.8510   -0.7740 N   0  0  0  0  0  0  0  0  0  0  0  0
    9.2960    2.0400   -0.8760 H   0  0  0  0  0  0  0  0  0  0  0  0
   11.1290    2.9480   -0.3650 C   0  0  0  0  0  2  0  0  0  0  0  0
   11.3620    2.9690    1.1310 C   0  0  0  0  0  0  0  0  0  0  0  0
   12.5780    3.3990    1.6810 C   0  0  0  0  0  3  0  0  0  0  0  0
   12.7870    3.3750    3.0620 C   0  0  0  0  0  3  0  0  0  0  0  0
   11.7870    2.9060    3.9110 C   0  0  0  0  0  3  0  0  0  0  0  0
   10.5790    2.4600    3.3800 C   0  0  0  0  0  3  0  0  0  0  0  0
   10.3700    2.4870    1.9990 C   0  0  0  0  0  3  0  0  0  0  0  0
  1  6  1  0  0  0  0
  1  8  1  0  0  0  0
  2  1  2  0  0  0  0
  3  4  2  0  0  0  0
  3  2  1  0  0  0  0
  4  5  1  0  0  0  0
  5 15  1  0  0  0  0
  5  6  2  0  0  0  0
  7 10  1  0  0  0  0
  8  7  1  0  0  0  0
  9  8  2  0  0  0  0
 10 13  1  0  0  0  0
 11 10  2  0  0  0  0
 13 12  2  0  0  0  0
 13 14  1  0  0  0  0
 15 17  1  0  0  0  0
 16 15  1  0  0  0  0
 17 18  1  0  0  0  0
 18 19  2  0  0  0  0
 18 23  1  0  0  0  0
 19 20  1  0  0  0  0
 20 21  2  0  0  0  0
 22 21  1  0  0  0  0
 23 22  2  0  0  0  0
M  END
>  <minimizedAffinity>
-6.81116962

$$$$

 OpenBabel09122218333D

 23 24  0  0  0  0  0  0  0  0999 V2000
   10.6200   -1.8800   -0.9170 C   0  0  0  0  0  0  0  0  0  0  0  0
   11.6200   -2.1330   -1.8610 C   0  0  0  0  0  3  0  0  0  0  0  0
   12.2200   -1.0770   -2.5420 C   0  0  0  0  0  3  0  0  0  0  0  0
   11.8280    0.2420   -2.2810 C   0  0  0  0  0  3  0  0  0  0  0  0
   10.8340    0.5330   -1.3390 C   0  0  0  0  0  0  0  0  0  0  0  0
   10.2480   -0.5490   -0.6630 C   0  0  0  0  0  3  0  0  0  0  0  0
    9.5980   -2.6000    1.0620 C   0  0  0  0  0  2  0  0  0  0  0  0
    9.9490   -3.0080   -0.1860 C   0  0  0  0  0  0  0  0  0  0  0  0
    9.8120   -4.1190   -0.7750 O   0  0  0  0  0  0  0  0  0  0  0  0
    8.9060   -3.3430    2.1810 C   0  0  0  0  0  0  0  0  0  0  0  0
    7.9980   -4.1620    2.0590 O   0  0  0  0  0  0  0  0  0  0  0  0
   10.5820   -2.6570    3.8340 O   0  0  0  0  0  0  0  0  0  0  0  0
    9.3830   -3.0660    3.6450 C   0  0  0  0  0  0  0  0  0  0  0  0
    8.5350   -3.2660    4.5850 O   0  0  0  0  0  1  0  0  0  0  0  0
   10.4190    1.8150   -1.0240 N   0  0  0  0  0  0  0  0  0  0  0  0
   10.0610    2.3590   -1.8000 H   0  0  0  0  0  0  0  0  0  0  0  0
   10.5660    2.4900    0.2430 C   0  0  0  0  0  2  0  0  0  0  0  0
   10.7090    3.9880    0.0840 C   0  0  0  0  0  0  0  0  0  0  0  0
    9.5930    4.8360    0.0470 C   0  0  0  0  0  3  0  0  0  0  0  0
    9.7450    6.2120   -0.1390 C   0  0  0  0  0  3  0  0  0  0  0  0
   11.0160    6.7580   -0.3030 C   0  0  0  0  0  3  0  0  0  0  0  0
   12.1350    5.9290   -0.2840 C   0  0  0  0  0  3  0  0  0  0  0  0
   11.9820    4.5520   -0.0960 C   0  0  0  0  0  3  0  0  0  0  0  0
  1  6  1  0  0  0  0
  1  8  1  0  0  0  0
  2  1  2  0  0  0  0
  3  4  2  0  0  0  0
  3  2  1  0  0  0  0
  4  5  1  0  0  0  0
  5 15  1  0  0  0  0
  5  6  2  0  0  0  0
  7 10  1  0  0  0  0
  8  7  1  0  0  0  0
  9  8  2  0  0  0  0
 10 13  1  0  0  0  0
 11 10  2  0  0  0  0
 13 12  2  0  0  0  0
 13 14  1  0  0  0  0
 15 17  1  0  0  0  0
 16 15  1  0  0  0  0
 18 17  1  0  0  0  0
 19 18  1  0  0  0  0
 20 19  2  0  0  0  0
 21 22  2  0  0  0  0
 21 20  1  0  0  0  0
 22 23  1  0  0  0  0
 23 18  2  0  0  0  0
M  END
>  <minimizedAffinity>
-6.80491686

$$$$
