
 OpenBabel09122222393D

 39 41  0  0  1  0  0  0  0  0999 V2000
    4.6520   -5.6940    6.1430 C   0  0  1  0  0  3  0  0  0  0  0  0
    4.5930   -5.8270    4.8200 N   0  0  0  0  0  0  0  0  0  0  0  0
    4.7050   -4.5890    3.7700 S   0  0  0  0  0  0  0  0  0  0  0  0
    6.0810   -4.2310    3.5110 O   0  0  0  0  0  0  0  0  0  0  0  0
    3.7920   -4.8080    2.6670 O   0  0  0  0  0  0  0  0  0  0  0  0
    3.9780   -3.2610    4.6930 C   0  0  0  0  0  0  0  0  0  0  0  0
    2.7660   -2.0780    4.0850 C   0  0  0  0  0  3  0  0  0  0  0  0
    1.9420   -0.9870    5.2690 C   0  0  0  0  0  0  0  0  0  0  0  0
    2.3840   -1.0430    7.0280 C   0  0  0  0  0  3  0  0  0  0  0  0
    3.6350   -2.2280    7.6090 C   0  0  0  0  0  3  0  0  0  0  0  0
    4.4340   -3.3230    6.4280 C   0  0  0  0  0  0  0  0  0  0  0  0
    5.1520   -4.5020    6.7800 N   0  0  0  0  0  0  0  0  0  0  0  0
    4.0330   -6.5830    4.4470 H   0  0  0  0  0  0  0  0  0  0  0  0
    5.3400   -4.5680    7.7820 H   0  0  0  0  0  0  0  0  0  0  0  0
    3.0620   -7.9100    5.2360 N   0  0  0  0  0  0  0  0  0  0  0  0
    3.5930   -7.7550    6.5210 C   0  0  0  0  0  0  0  0  0  0  0  0
    4.4710   -8.4360    7.0400 O   0  0  0  0  0  0  0  0  0  0  0  0
    3.4670   -6.2960    6.8940 C   0  0  2  0  0  3  0  0  0  0  0  0
    2.2030   -5.8320    6.7750 C   0  0  2  0  0  3  0  0  0  0  0  0
    1.1900   -6.6770    6.0920 C   0  0  0  0  0  0  0  0  0  0  0  0
   -0.1770   -6.4170    6.1270 C   0  0  0  0  0  3  0  0  0  0  0  0
   -1.0250   -7.1550    5.3060 C   0  0  0  0  0  3  0  0  0  0  0  0
   -0.4710   -8.1010    4.4530 C   0  0  0  0  0  3  0  0  0  0  0  0
    0.8540   -8.3680    4.3720 N   0  0  0  0  0  0  0  0  0  0  0  0
    1.6530   -7.6750    5.2070 C   0  0  0  0  0  0  0  0  0  0  0  0
    1.8920   -4.4880    6.8130 O   0  0  0  0  0  0  0  0  0  0  0  0
    2.4590   -4.0380    7.4670 H   0  0  0  0  0  0  0  0  0  0  0  0
    3.9150   -8.4860    3.9960 C   0  0  0  0  0  1  0  0  0  0  0  0
    3.9110   -8.1510    1.8250 C   0  0  0  0  0  1  0  0  0  0  0  0
    4.5190   -6.6430   -0.3870 C   0  0  0  0  0  1  0  0  0  0  0  0
    5.0870   -7.6990    0.5840 C   0  0  0  0  0  3  0  0  0  0  0  0
    6.3250   -7.0700    1.2650 C   0  0  0  0  0  1  0  0  0  0  0  0
    0.9770   -0.0770    4.9370 O   0  0  0  0  0  0  0  0  0  0  0  0
   -0.2500   -0.6600    4.4950 C   0  0  0  0  0  2  0  0  0  0  0  0
   -0.4300   -0.2820    3.0240 C   0  0  0  0  0  2  0  0  0  0  0  0
   -1.8830   -0.2630    2.6860 N   0  0  0  0  0  4  0  0  0  0  0  0
   -2.3930    0.4830    3.1750 H   0  0  0  0  0  0  0  0  0  0  0  0
   -2.0400   -0.1460    1.6770 H   0  0  0  0  0  0  0  0  0  0  0  0
   -2.3110   -1.1610    2.9660 H   0  0  0  0  0  0  0  0  0  0  0  0
  1  2  1  6  0  0  0
  1 12  1  0  0  0  0
  1 18  1  0  0  0  0
  3  6  1  0  0  0  0
  3  2  1  0  0  0  0
  4  3  2  0  0  0  0
  5  3  2  0  0  0  0
  6 11  1  0  0  0  0
  7  6  2  0  0  0  0
  7  8  1  0  0  0  0
  8  9  2  0  0  0  0
  9 10  1  0  0  0  0
 11 12  1  0  0  0  0
 11 10  2  0  0  0  0
 12 14  1  0  0  0  0
 13  2  1  0  0  0  0
 15 16  1  0  0  0  0
 16 17  2  0  0  0  0
 18 16  1  6  0  0  0
 19 26  1  6  0  0  0
 19 18  1  0  0  0  0
 20 21  1  0  0  0  0
 20 19  1  0  0  0  0
 22 21  2  0  0  0  0
 23 22  1  0  0  0  0
 24 23  2  0  0  0  0
 24 25  1  0  0  0  0
 25 15  1  0  0  0  0
 25 20  2  0  0  0  0
 26 27  1  0  0  0  0
 28 15  1  0  0  0  0
 30 31  1  0  0  0  0
 31 32  1  0  0  0  0
 31 29  1  0  0  0  0
 33  8  1  0  0  0  0
 34 33  1  0  0  0  0
 35 34  1  0  0  0  0
 36 39  1  0  0  0  0
 36 35  1  0  0  0  0
 36 37  1  0  0  0  0
 38 36  1  0  0  0  0
M  END
>  <minimizedAffinity>
-0.372720271

$$$$
