
 OpenBabel09122222393D

 39 41  0  0  1  0  0  0  0  0999 V2000
    5.8640   -4.8580    4.5740 C   0  0  1  0  0  3  0  0  0  0  0  0
    6.8220   -3.9990    4.9120 N   0  0  0  0  0  0  0  0  0  0  0  0
    6.8280   -3.1320    6.2900 S   0  0  0  0  0  0  0  0  0  0  0  0
    7.3450   -3.8970    7.4010 O   0  0  0  0  0  0  0  0  0  0  0  0
    7.3420   -1.8050    6.0210 O   0  0  0  0  0  0  0  0  0  0  0  0
    5.0950   -2.8880    6.5750 C   0  0  0  0  0  0  0  0  0  0  0  0
    4.2970   -1.3420    7.0340 C   0  0  0  0  0  3  0  0  0  0  0  0
    2.4910   -1.2460    6.9930 C   0  0  0  0  0  0  0  0  0  0  0  0
    1.5060   -2.7080    6.5620 C   0  0  0  0  0  3  0  0  0  0  0  0
    2.3390   -4.2670    6.1340 C   0  0  0  0  0  3  0  0  0  0  0  0
    4.1360   -4.3460    6.1570 C   0  0  0  0  0  0  0  0  0  0  0  0
    4.9050   -5.3640    5.5240 N   0  0  0  0  0  0  0  0  0  0  0  0
    7.3100   -3.5190    4.1670 H   0  0  0  0  0  0  0  0  0  0  0  0
    4.3390   -6.1580    5.2190 H   0  0  0  0  0  0  0  0  0  0  0  0
    4.4990   -6.8200    2.9770 N   0  0  0  0  0  0  0  0  0  0  0  0
    4.0440   -5.5260    3.2510 C   0  0  0  0  0  0  0  0  0  0  0  0
    3.0690   -5.2190    3.9300 O   0  0  0  0  0  0  0  0  0  0  0  0
    5.2380   -4.6020    3.2050 C   0  0  2  0  0  3  0  0  0  0  0  0
    5.9280   -4.6950    2.0470 C   0  0  2  0  0  3  0  0  0  0  0  0
    5.6120   -5.8040    1.1100 C   0  0  0  0  0  0  0  0  0  0  0  0
    6.0770   -5.8590   -0.2000 C   0  0  0  0  0  3  0  0  0  0  0  0
    5.8830   -7.0240   -0.9370 C   0  0  0  0  0  3  0  0  0  0  0  0
    5.2620   -8.1050   -0.3240 C   0  0  0  0  0  3  0  0  0  0  0  0
    4.8170   -8.1010    0.9550 N   0  0  0  0  0  0  0  0  0  0  0  0
    4.9740   -6.9490    1.6360 C   0  0  0  0  0  0  0  0  0  0  0  0
    7.1830   -4.1460    1.8770 O   0  0  0  0  0  0  0  0  0  0  0  0
    7.2330   -3.2900    2.3430 H   0  0  0  0  0  0  0  0  0  0  0  0
    4.3110   -8.0530    3.9990 C   0  0  0  0  0  1  0  0  0  0  0  0
    3.1250   -8.3900    5.8170 C   0  0  0  0  0  1  0  0  0  0  0  0
    1.2240   -7.5620    7.6160 C   0  0  0  0  0  1  0  0  0  0  0  0
    1.4210   -8.3120    6.2830 C   0  0  0  0  0  3  0  0  0  0  0  0
    0.6370   -7.5310    5.2030 C   0  0  0  0  0  1  0  0  0  0  0  0
    1.7710   -0.1200    7.2790 O   0  0  0  0  0  0  0  0  0  0  0  0
    1.2290    0.5360    6.1320 C   0  0  0  0  0  2  0  0  0  0  0  0
    1.3990   -0.4110    4.9430 C   0  0  0  0  0  2  0  0  0  0  0  0
    0.1060   -0.5330    4.2100 N   0  0  0  0  0  4  0  0  0  0  0  0
   -0.1780    0.3470    3.7610 H   0  0  0  0  0  0  0  0  0  0  0  0
    0.1420   -1.2620    3.4860 H   0  0  0  0  0  0  0  0  0  0  0  0
   -0.6410   -0.7910    4.8760 H   0  0  0  0  0  0  0  0  0  0  0  0
  1  2  1  1  0  0  0
  1 12  1  0  0  0  0
  2  3  1  0  0  0  0
  3  6  1  0  0  0  0
  3  4  2  0  0  0  0
  5  3  2  0  0  0  0
  6  7  1  0  0  0  0
  8  7  2  0  0  0  0
  8 33  1  0  0  0  0
  9  8  1  0  0  0  0
 10 11  1  0  0  0  0
 10  9  2  0  0  0  0
 11  6  2  0  0  0  0
 12 11  1  0  0  0  0
 13  2  1  0  0  0  0
 14 12  1  0  0  0  0
 15 16  1  0  0  0  0
 15 28  1  0  0  0  0
 16 17  2  0  0  0  0
 18 16  1  6  0  0  0
 18  1  1  0  0  0  0
 19 26  1  1  0  0  0
 19 18  1  0  0  0  0
 20 25  1  0  0  0  0
 20 19  1  0  0  0  0
 21 20  2  0  0  0  0
 22 23  2  0  0  0  0
 22 21  1  0  0  0  0
 23 24  1  0  0  0  0
 24 25  2  0  0  0  0
 25 15  1  0  0  0  0
 26 27  1  0  0  0  0
 29 31  1  0  0  0  0
 31 30  1  0  0  0  0
 32 31  1  0  0  0  0
 34 33  1  0  0  0  0
 35 34  1  0  0  0  0
 36 39  1  0  0  0  0
 36 35  1  0  0  0  0
 37 36  1  0  0  0  0
 38 36  1  0  0  0  0
M  END
>  <minimizedAffinity>
0.82103771

$$$$
