
 OpenBabel09122222393D

 39 41  0  0  1  0  0  0  0  0999 V2000
    4.1600   -6.5940    4.8900 C   0  0  1  0  0  3  0  0  0  0  0  0
    3.8200   -5.4510    4.3000 N   0  0  0  0  0  0  0  0  0  0  0  0
    2.6260   -4.4740    4.8180 S   0  0  0  0  0  0  0  0  0  0  0  0
    3.0710   -3.6050    5.8830 O   0  0  0  0  0  0  0  0  0  0  0  0
    1.9250   -3.9220    3.6770 O   0  0  0  0  0  0  0  0  0  0  0  0
    1.4850   -5.6340    5.5230 C   0  0  0  0  0  0  0  0  0  0  0  0
   -0.2960   -5.6640    5.2720 C   0  0  0  0  0  3  0  0  0  0  0  0
   -1.2340   -7.1000    5.8480 C   0  0  0  0  0  0  0  0  0  0  0  0
   -0.3950   -8.4510    6.7230 C   0  0  0  0  0  3  0  0  0  0  0  0
    1.4020   -8.3780    6.9900 C   0  0  0  0  0  3  0  0  0  0  0  0
    2.3280   -6.9560    6.3960 C   0  0  0  0  0  0  0  0  0  0  0  0
    3.7430   -6.9300    6.2280 N   0  0  0  0  0  0  0  0  0  0  0  0
    3.9540   -5.3780    3.3000 H   0  0  0  0  0  0  0  0  0  0  0  0
    4.2100   -7.7280    6.6620 H   0  0  0  0  0  0  0  0  0  0  0  0
    5.2510   -6.6580    2.2320 N   0  0  0  0  0  0  0  0  0  0  0  0
    5.4660   -7.6160    3.2280 C   0  0  0  0  0  0  0  0  0  0  0  0
    6.5230   -7.8530    3.8020 O   0  0  0  0  0  0  0  0  0  0  0  0
    4.1610   -7.8080    3.9650 C   0  0  2  0  0  3  0  0  0  0  0  0
    3.1340   -8.1120    3.1410 C   0  0  2  0  0  3  0  0  0  0  0  0
    3.3280   -7.9790    1.6740 C   0  0  0  0  0  0  0  0  0  0  0  0
    2.4390   -8.4890    0.7320 C   0  0  0  0  0  3  0  0  0  0  0  0
    2.6090   -8.1540   -0.6080 C   0  0  0  0  0  3  0  0  0  0  0  0
    3.6420   -7.2910   -0.9530 C   0  0  0  0  0  3  0  0  0  0  0  0
    4.5130   -6.7550   -0.0660 N   0  0  0  0  0  0  0  0  0  0  0  0
    4.3590   -7.1280    1.2200 C   0  0  0  0  0  0  0  0  0  0  0  0
    1.8150   -8.0820    3.5460 O   0  0  0  0  0  0  0  0  0  0  0  0
    1.7450   -8.4090    4.4630 H   0  0  0  0  0  0  0  0  0  0  0  0
    6.0790   -5.2770    2.1460 C   0  0  0  0  0  1  0  0  0  0  0  0
    6.9270   -3.8850    3.6190 C   0  0  0  0  0  1  0  0  0  0  0  0
    6.1620   -4.0960    6.2480 C   0  0  0  0  0  1  0  0  0  0  0  0
    6.3890   -3.0870    5.1030 C   0  0  0  0  0  3  0  0  0  0  0  0
    7.4840   -2.1030    5.5740 C   0  0  0  0  0  1  0  0  0  0  0  0
   -2.5810   -7.2590    5.6810 O   0  0  0  0  0  0  0  0  0  0  0  0
   -3.3590   -6.1330    6.0910 C   0  0  0  0  0  2  0  0  0  0  0  0
   -4.0740   -6.5210    7.3870 C   0  0  0  0  0  2  0  0  0  0  0  0
   -5.2700   -5.6500    7.5790 N   0  0  0  0  0  4  0  0  0  0  0  0
   -5.9920   -5.8070    6.8650 H   0  0  0  0  0  0  0  0  0  0  0  0
   -5.7000   -5.7880    8.5030 H   0  0  0  0  0  0  0  0  0  0  0  0
   -4.9850   -4.6590    7.5120 H   0  0  0  0  0  0  0  0  0  0  0  0
  1  2  1  6  0  0  0
  1 12  1  0  0  0  0
  2  3  1  0  0  0  0
  3  6  1  0  0  0  0
  3  4  2  0  0  0  0
  5  3  2  0  0  0  0
  6 11  1  0  0  0  0
  7  6  2  0  0  0  0
  7  8  1  0  0  0  0
  8  9  2  0  0  0  0
  9 10  1  0  0  0  0
 11 10  2  0  0  0  0
 12 11  1  0  0  0  0
 12 14  1  0  0  0  0
 13  2  1  0  0  0  0
 15 16  1  0  0  0  0
 16 17  2  0  0  0  0
 18 16  1  6  0  0  0
 18  1  1  0  0  0  0
 19 26  1  1  0  0  0
 19 18  1  0  0  0  0
 20 19  1  0  0  0  0
 21 20  2  0  0  0  0
 22 21  1  0  0  0  0
 23 22  2  0  0  0  0
 23 24  1  0  0  0  0
 24 25  2  0  0  0  0
 25 20  1  0  0  0  0
 25 15  1  0  0  0  0
 26 27  1  0  0  0  0
 28 15  1  0  0  0  0
 29 31  1  0  0  0  0
 31 32  1  0  0  0  0
 31 30  1  0  0  0  0
 33  8  1  0  0  0  0
 33 34  1  0  0  0  0
 34 35  1  0  0  0  0
 35 36  1  0  0  0  0
 36 38  1  0  0  0  0
 37 36  1  0  0  0  0
 39 36  1  0  0  0  0
M  END
>  <minimizedAffinity>
1.36549091

$$$$
