
 OpenBabel09132204463D

 39 40  0  0  0  0  0  0  0  0999 V2000
    4.4260   -5.8720    3.4930 C   0  0  0  0  0  0  0  0  0  0  0  0
    4.2470   -7.0890    4.0610 C   0  0  0  0  0  2  0  0  0  0  0  0
    3.1240   -7.5030    4.9050 C   0  0  0  0  0  0  0  0  0  0  0  0
    2.0240   -8.1440    4.3240 C   0  0  0  0  0  3  0  0  0  0  0  0
    0.9360   -8.5210    5.1130 C   0  0  0  0  0  3  0  0  0  0  0  0
    0.9660   -8.2870    6.4880 C   0  0  0  0  0  0  0  0  0  0  0  0
    2.0580   -7.6450    7.0760 C   0  0  0  0  0  3  0  0  0  0  0  0
    3.1380   -7.2560    6.2830 C   0  0  0  0  0  3  0  0  0  0  0  0
   -0.1400   -8.6470    7.2250 O   0  0  0  0  0  0  0  0  0  0  0  0
   -0.9950   -9.5470    6.6260 C   0  0  0  0  0  0  0  0  0  0  0  0
   -0.6310  -10.8910    6.4900 C   0  0  0  0  0  3  0  0  0  0  0  0
   -1.4820  -11.7840    5.8360 C   0  0  0  0  0  3  0  0  0  0  0  0
   -2.6920  -11.3360    5.3080 C   0  0  0  0  0  3  0  0  0  0  0  0
   -3.0520   -9.9920    5.4270 C   0  0  0  0  0  3  0  0  0  0  0  0
   -2.2000   -9.0960    6.0780 C   0  0  0  0  0  0  0  0  0  0  0  0
   -2.7350   -7.2800    6.2090 Br  0  0  0  0  0  0  0  0  0  0  0  0
    6.4230   -4.8190    2.6560 O   0  0  0  0  0  0  0  0  0  0  0  0
    5.7420   -5.8600    2.6720 C   0  0  0  0  0  0  0  0  0  0  0  0
    6.3020   -6.9390    2.0320 N   0  0  0  0  0  0  0  0  0  0  0  0
    7.2000   -6.7510    1.6180 H   0  0  0  0  0  0  0  0  0  0  0  0
    5.8270   -8.2910    2.1130 C   0  0  0  0  0  2  0  0  0  0  0  0
    5.8040   -9.6600    3.6160 C   0  0  0  0  0  1  0  0  0  0  0  0
    4.4790  -10.8670    3.6660 C   0  0  0  0  0  3  0  0  0  0  0  0
    3.2820  -10.8320    2.4040 C   0  0  0  0  0  3  0  0  0  0  0  0
    3.3070   -9.7080    1.0470 C   0  0  0  0  0  3  0  0  0  0  0  0
    4.5450   -8.4670    0.8300 C   0  0  0  0  0  0  0  0  0  0  0  0
    4.5140   -7.6720   -0.4470 C   0  0  0  0  0  0  0  0  0  0  0  0
    5.3860   -7.9810   -1.3180 O   0  0  0  0  0  0  0  0  0  0  0  0
    3.6490   -6.7520   -0.5530 O   0  0  0  0  0  1  0  0  0  0  0  0
    3.4390   -4.8930    3.6940 N   0  0  0  0  0  4  0  0  0  0  0  0
    3.2450   -3.7660    4.4870 C   0  0  0  0  0  0  0  0  0  0  0  0
    2.2740   -3.0350    4.2880 O   0  0  0  0  0  0  0  0  0  0  0  0
    2.5780   -5.0710    3.1920 H   0  0  0  0  0  0  0  0  0  0  0  0
    4.3150   -3.3910    5.4970 C   0  0  0  0  0  2  0  0  0  0  0  0
    6.3340   -3.4760    5.7070 C   0  0  0  0  0  1  0  0  0  0  0  0
    7.1540   -2.1590    6.6160 C   0  0  0  0  0  3  0  0  0  0  0  0
    6.1680   -0.8920    7.3150 C   0  0  0  0  0  3  0  0  0  0  0  0
    4.4000   -0.8380    7.2250 C   0  0  0  0  0  3  0  0  0  0  0  0
    3.4510   -2.0440    6.3600 C   0  0  0  0  0  3  0  0  0  0  0  0
  1 30  2  0  0  0  0
  1  2  1  0  0  0  0
  2  3  1  0  0  0  0
  3  8  1  0  0  0  0
  4  3  2  0  0  0  0
  4  5  1  0  0  0  0
  5  6  2  0  0  0  0
  6  7  1  0  0  0  0
  6  9  1  0  0  0  0
  8  7  2  0  0  0  0
 10  9  1  0  0  0  0
 11 10  1  0  0  0  0
 12 11  2  0  0  0  0
 13 14  2  0  0  0  0
 13 12  1  0  0  0  0
 14 15  1  0  0  0  0
 15 16  1  0  0  0  0
 15 10  2  0  0  0  0
 17 18  2  0  0  0  0
 18  1  1  0  0  0  0
 19 21  1  0  0  0  0
 19 18  1  0  0  0  0
 20 19  1  0  0  0  0
 22 23  1  0  0  0  0
 24 23  2  0  0  0  0
 25 24  1  0  0  0  0
 26 25  2  0  0  0  0
 26 21  1  0  0  0  0
 27 26  1  0  0  0  0
 28 27  2  0  0  0  0
 29 27  1  0  0  0  0
 30 31  1  0  0  0  0
 31 34  1  0  0  0  0
 32 31  2  0  0  0  0
 33 30  1  0  0  0  0
 34 39  1  0  0  0  0
 35 36  1  0  0  0  0
 36 37  2  0  0  0  0
 38 37  1  0  0  0  0
 39 38  2  0  0  0  0
M  END
>  <minimizedAffinity>
-6.9480505

$$$$
