
 OpenBabel09122223483D

 39 40  0  0  0  0  0  0  0  0999 V2000
    3.7940   -8.3140    1.1380 C   0  0  0  0  0  0  0  0  0  0  0  0
    4.3500   -7.6870    0.0730 C   0  0  0  0  0  2  0  0  0  0  0  0
    5.6190   -6.9540    0.0550 C   0  0  0  0  0  0  0  0  0  0  0  0
    6.6350   -7.3120    0.9470 C   0  0  0  0  0  3  0  0  0  0  0  0
    7.8390   -6.6060    0.9580 C   0  0  0  0  0  3  0  0  0  0  0  0
    8.0370   -5.5650    0.0520 C   0  0  0  0  0  0  0  0  0  0  0  0
    7.0270   -5.1970   -0.8400 C   0  0  0  0  0  3  0  0  0  0  0  0
    5.8180   -5.8950   -0.8390 C   0  0  0  0  0  3  0  0  0  0  0  0
    9.2270   -4.8740    0.1150 O   0  0  0  0  0  0  0  0  0  0  0  0
    9.1890   -3.6710    0.7870 C   0  0  0  0  0  0  0  0  0  0  0  0
    8.3750   -3.5130    1.9140 C   0  0  0  0  0  3  0  0  0  0  0  0
    8.3040   -2.2760    2.5570 C   0  0  0  0  0  3  0  0  0  0  0  0
    9.0360   -1.1930    2.0720 C   0  0  0  0  0  3  0  0  0  0  0  0
    9.8360   -1.3420    0.9380 C   0  0  0  0  0  3  0  0  0  0  0  0
    9.9060   -2.5790    0.2900 C   0  0  0  0  0  0  0  0  0  0  0  0
   11.0050   -2.7280   -1.2500 Br  0  0  0  0  0  0  0  0  0  0  0  0
    1.8610   -8.5330   -0.2800 O   0  0  0  0  0  0  0  0  0  0  0  0
    2.4540   -8.9730    0.7220 C   0  0  0  0  0  0  0  0  0  0  0  0
    1.8920  -10.0890    1.2930 N   0  0  0  0  0  0  0  0  0  0  0  0
    1.0580  -10.4120    0.8320 H   0  0  0  0  0  0  0  0  0  0  0  0
    2.5110  -10.9080    2.2970 C   0  0  0  0  0  2  0  0  0  0  0  0
    4.3810  -11.6820    2.4900 C   0  0  0  0  0  1  0  0  0  0  0  0
    5.0500  -11.9260    4.1360 C   0  0  0  0  0  3  0  0  0  0  0  0
    4.0530  -11.5140    5.5020 C   0  0  0  0  0  3  0  0  0  0  0  0
    2.4030  -10.9080    5.3760 C   0  0  0  0  0  3  0  0  0  0  0  0
    1.5810  -10.6250    3.8390 C   0  0  0  0  0  0  0  0  0  0  0  0
    0.1290  -10.2380    3.8900 C   0  0  0  0  0  0  0  0  0  0  0  0
   -0.7040  -11.1580    3.6130 O   0  0  0  0  0  0  0  0  0  0  0  0
   -0.1560   -9.0390    4.1800 O   0  0  0  0  0  1  0  0  0  0  0  0
    4.4920   -8.3000    2.3570 N   0  0  0  0  0  4  0  0  0  0  0  0
    4.5140   -7.5510    3.5290 C   0  0  0  0  0  0  0  0  0  0  0  0
    5.1890   -7.9280    4.4870 O   0  0  0  0  0  0  0  0  0  0  0  0
    5.2580   -8.9620    2.3970 H   0  0  0  0  0  0  0  0  0  0  0  0
    3.5940   -6.3490    3.6440 C   0  0  0  0  0  2  0  0  0  0  0  0
    2.0600   -5.6850    4.8010 C   0  0  0  0  0  1  0  0  0  0  0  0
    1.9200   -3.9180    5.1000 C   0  0  0  0  0  3  0  0  0  0  0  0
    3.0820   -2.8500    4.3430 C   0  0  0  0  0  3  0  0  0  0  0  0
    4.3750   -3.3900    3.2590 C   0  0  0  0  0  3  0  0  0  0  0  0
    4.6550   -5.0870    2.8770 C   0  0  0  0  0  3  0  0  0  0  0  0
  1 30  2  0  0  0  0
  2  1  1  0  0  0  0
  3  2  1  0  0  0  0
  3  4  1  0  0  0  0
  4  5  2  0  0  0  0
  6  9  1  0  0  0  0
  6  5  1  0  0  0  0
  7  8  1  0  0  0  0
  7  6  2  0  0  0  0
  8  3  2  0  0  0  0
  9 10  1  0  0  0  0
 10 11  1  0  0  0  0
 11 12  2  0  0  0  0
 13 12  1  0  0  0  0
 14 13  2  0  0  0  0
 15 10  2  0  0  0  0
 15 14  1  0  0  0  0
 16 15  1  0  0  0  0
 17 18  2  0  0  0  0
 18  1  1  0  0  0  0
 18 19  1  0  0  0  0
 19 21  1  0  0  0  0
 20 19  1  0  0  0  0
 21 26  1  0  0  0  0
 22 23  1  0  0  0  0
 23 24  2  0  0  0  0
 25 24  1  0  0  0  0
 26 27  1  0  0  0  0
 26 25  2  0  0  0  0
 27 29  1  0  0  0  0
 28 27  2  0  0  0  0
 30 33  1  0  0  0  0
 30 31  1  0  0  0  0
 31 34  1  0  0  0  0
 31 32  2  0  0  0  0
 35 36  1  0  0  0  0
 37 36  2  0  0  0  0
 38 37  1  0  0  0  0
 39 38  2  0  0  0  0
 39 34  1  0  0  0  0
M  END
>  <minimizedAffinity>
-9.42184639

$$$$

 OpenBabel09122223483D

 39 40  0  0  0  0  0  0  0  0999 V2000
    5.2190   -5.2540    2.9980 C   0  0  0  0  0  0  0  0  0  0  0  0
    6.2410   -4.5350    3.5210 C   0  0  0  0  0  2  0  0  0  0  0  0
    7.2410   -3.7670    2.7750 C   0  0  0  0  0  0  0  0  0  0  0  0
    7.6350   -2.5090    3.2420 C   0  0  0  0  0  3  0  0  0  0  0  0
    8.5680   -1.7560    2.5280 C   0  0  0  0  0  3  0  0  0  0  0  0
    9.1310   -2.2790    1.3640 C   0  0  0  0  0  0  0  0  0  0  0  0
    8.7420   -3.5330    0.8870 C   0  0  0  0  0  3  0  0  0  0  0  0
    7.7980   -4.2770    1.5960 C   0  0  0  0  0  3  0  0  0  0  0  0
   10.0250   -1.4920    0.6720 O   0  0  0  0  0  0  0  0  0  0  0  0
   10.8790   -2.1590   -0.1790 C   0  0  0  0  0  0  0  0  0  0  0  0
   11.4920   -3.3530    0.2210 C   0  0  0  0  0  3  0  0  0  0  0  0
   12.3950   -3.9940   -0.6280 C   0  0  0  0  0  3  0  0  0  0  0  0
   12.6980   -3.4410   -1.8720 C   0  0  0  0  0  3  0  0  0  0  0  0
   12.1020   -2.2430   -2.2680 C   0  0  0  0  0  3  0  0  0  0  0  0
   11.1990   -1.5970   -1.4180 C   0  0  0  0  0  0  0  0  0  0  0  0
   10.4200    0.0310   -2.0030 Br  0  0  0  0  0  0  0  0  0  0  0  0
    4.5940   -7.1020    4.4100 O   0  0  0  0  0  0  0  0  0  0  0  0
    4.3930   -5.9040    4.1380 C   0  0  0  0  0  0  0  0  0  0  0  0
    3.5170   -5.2520    4.9720 N   0  0  0  0  0  0  0  0  0  0  0  0
    3.1360   -5.8300    5.7020 H   0  0  0  0  0  0  0  0  0  0  0  0
    3.3050   -3.8330    5.0080 C   0  0  0  0  0  2  0  0  0  0  0  0
    1.7930   -2.6440    4.3490 C   0  0  0  0  0  1  0  0  0  0  0  0
    1.4440   -1.1210    5.2300 C   0  0  0  0  0  3  0  0  0  0  0  0
    2.4380   -0.7120    6.5990 C   0  0  0  0  0  3  0  0  0  0  0  0
    3.8000   -1.6800    7.1560 C   0  0  0  0  0  3  0  0  0  0  0  0
    4.2970   -3.1970    6.3980 C   0  0  0  0  0  0  0  0  0  0  0  0
    5.5610   -3.8400    6.8980 C   0  0  0  0  0  0  0  0  0  0  0  0
    6.6120   -3.1270    6.8380 O   0  0  0  0  0  0  0  0  0  0  0  0
    5.4940   -5.0340    7.3160 O   0  0  0  0  0  1  0  0  0  0  0  0
    5.0590   -5.2640    1.6030 N   0  0  0  0  0  4  0  0  0  0  0  0
    4.9430   -6.2020    0.5810 C   0  0  0  0  0  0  0  0  0  0  0  0
    4.6620   -5.8350   -0.5610 O   0  0  0  0  0  0  0  0  0  0  0  0
    5.1180   -4.3480    1.1770 H   0  0  0  0  0  0  0  0  0  0  0  0
    5.0360   -7.6770    0.9300 C   0  0  0  0  0  2  0  0  0  0  0  0
    6.1040   -8.9100    2.1410 C   0  0  0  0  0  1  0  0  0  0  0  0
    5.2790  -10.3490    2.8340 C   0  0  0  0  0  3  0  0  0  0  0  0
    3.6100  -10.6440    2.3960 C   0  0  0  0  0  3  0  0  0  0  0  0
    2.6800   -9.6370    1.2750 C   0  0  0  0  0  3  0  0  0  0  0  0
    3.3380   -8.1860    0.5230 C   0  0  0  0  0  3  0  0  0  0  0  0
  1  2  1  0  0  0  0
  1 18  1  0  0  0  0
  3  4  1  0  0  0  0
  3  2  1  0  0  0  0
  5  4  2  0  0  0  0
  6  5  1  0  0  0  0
  7  6  2  0  0  0  0
  7  8  1  0  0  0  0
  8  3  2  0  0  0  0
  9  6  1  0  0  0  0
 10 11  1  0  0  0  0
 10  9  1  0  0  0  0
 12 11  2  0  0  0  0
 13 12  1  0  0  0  0
 14 13  2  0  0  0  0
 14 15  1  0  0  0  0
 15 10  2  0  0  0  0
 16 15  1  0  0  0  0
 18 17  2  0  0  0  0
 18 19  1  0  0  0  0
 19 21  1  0  0  0  0
 19 20  1  0  0  0  0
 21 26  1  0  0  0  0
 22 23  1  0  0  0  0
 23 24  2  0  0  0  0
 24 25  1  0  0  0  0
 26 27  1  0  0  0  0
 26 25  2  0  0  0  0
 27 29  1  0  0  0  0
 28 27  2  0  0  0  0
 30  1  2  0  0  0  0
 31 34  1  0  0  0  0
 31 30  1  0  0  0  0
 32 31  2  0  0  0  0
 33 30  1  0  0  0  0
 35 36  1  0  0  0  0
 37 36  2  0  0  0  0
 38 37  1  0  0  0  0
 39 34  1  0  0  0  0
 39 38  2  0  0  0  0
M  END
>  <minimizedAffinity>
-7.32283354

$$$$

 OpenBabel09122223483D

 39 40  0  0  0  0  0  0  0  0999 V2000
    4.3390   -6.6330    3.1650 C   0  0  0  0  0  0  0  0  0  0  0  0
    4.0480   -6.4790    4.4790 C   0  0  0  0  0  2  0  0  0  0  0  0
    2.8980   -7.0430    5.1910 C   0  0  0  0  0  0  0  0  0  0  0  0
    1.6400   -6.4470    5.0500 C   0  0  0  0  0  3  0  0  0  0  0  0
    0.5410   -6.9580    5.7420 C   0  0  0  0  0  3  0  0  0  0  0  0
    0.6960   -8.0870    6.5460 C   0  0  0  0  0  0  0  0  0  0  0  0
    1.9490   -8.6870    6.6960 C   0  0  0  0  0  3  0  0  0  0  0  0
    3.0490   -8.1640    6.0150 C   0  0  0  0  0  3  0  0  0  0  0  0
   -0.4060   -8.5420    7.2350 O   0  0  0  0  0  0  0  0  0  0  0  0
   -1.1290   -9.5410    6.6200 C   0  0  0  0  0  0  0  0  0  0  0  0
   -0.6270  -10.8460    6.5570 C   0  0  0  0  0  3  0  0  0  0  0  0
   -1.3420  -11.8390    5.8880 C   0  0  0  0  0  3  0  0  0  0  0  0
   -2.5540  -11.5320    5.2700 C   0  0  0  0  0  3  0  0  0  0  0  0
   -3.0510  -10.2280    5.3150 C   0  0  0  0  0  3  0  0  0  0  0  0
   -2.3340   -9.2300    5.9830 C   0  0  0  0  0  0  0  0  0  0  0  0
   -3.0510   -7.4740    6.0110 Br  0  0  0  0  0  0  0  0  0  0  0  0
    6.4750   -6.4300    2.0710 O   0  0  0  0  0  0  0  0  0  0  0  0
    5.6510   -5.8780    2.8230 C   0  0  0  0  0  0  0  0  0  0  0  0
    5.9570   -4.5890    3.1850 N   0  0  0  0  0  0  0  0  0  0  0  0
    6.8220   -4.2480    2.8010 H   0  0  0  0  0  0  0  0  0  0  0  0
    5.0640   -3.6770    3.8420 C   0  0  0  0  0  2  0  0  0  0  0  0
    3.0730   -3.3110    3.6470 C   0  0  0  0  0  1  0  0  0  0  0  0
    2.1490   -2.7650    5.0850 C   0  0  0  0  0  3  0  0  0  0  0  0
    3.0080   -2.5440    6.5820 C   0  0  0  0  0  3  0  0  0  0  0  0
    4.7440   -2.7820    6.7730 C   0  0  0  0  0  3  0  0  0  0  0  0
    5.8080   -3.3000    5.4620 C   0  0  0  0  0  0  0  0  0  0  0  0
    7.2860   -3.3270    5.7390 C   0  0  0  0  0  0  0  0  0  0  0  0
    7.6240   -3.3570    6.9640 O   0  0  0  0  0  1  0  0  0  0  0  0
    8.0760   -3.2980    4.7490 O   0  0  0  0  0  0  0  0  0  0  0  0
    3.4860   -7.4280    2.3830 N   0  0  0  0  0  4  0  0  0  0  0  0
    3.1860   -8.7780    2.2240 C   0  0  0  0  0  0  0  0  0  0  0  0
    2.2410   -9.1170    1.5110 O   0  0  0  0  0  0  0  0  0  0  0  0
    2.9910   -6.9140    1.6650 H   0  0  0  0  0  0  0  0  0  0  0  0
    3.9530   -9.7980    3.0470 C   0  0  0  0  0  2  0  0  0  0  0  0
    5.6740   -9.9330    4.1200 C   0  0  0  0  0  1  0  0  0  0  0  0
    5.6920  -10.9900    5.5740 C   0  0  0  0  0  3  0  0  0  0  0  0
    4.2410  -11.8870    5.9690 C   0  0  0  0  0  3  0  0  0  0  0  0
    2.7560  -11.8580    5.0050 C   0  0  0  0  0  3  0  0  0  0  0  0
    2.5730  -10.8640    3.5620 C   0  0  0  0  0  3  0  0  0  0  0  0
  1  2  1  0  0  0  0
  2  3  1  0  0  0  0
  3  8  1  0  0  0  0
  4  3  2  0  0  0  0
  4  5  1  0  0  0  0
  5  6  2  0  0  0  0
  6  7  1  0  0  0  0
  6  9  1  0  0  0  0
  8  7  2  0  0  0  0
 10  9  1  0  0  0  0
 11 10  1  0  0  0  0
 12 11  2  0  0  0  0
 13 14  2  0  0  0  0
 13 12  1  0  0  0  0
 14 15  1  0  0  0  0
 15 16  1  0  0  0  0
 15 10  2  0  0  0  0
 17 18  2  0  0  0  0
 18  1  1  0  0  0  0
 18 19  1  0  0  0  0
 19 21  1  0  0  0  0
 20 19  1  0  0  0  0
 21 26  1  0  0  0  0
 22 23  1  0  0  0  0
 23 24  2  0  0  0  0
 24 25  1  0  0  0  0
 26 27  1  0  0  0  0
 26 25  2  0  0  0  0
 27 28  1  0  0  0  0
 29 27  2  0  0  0  0
 30  1  2  0  0  0  0
 31 30  1  0  0  0  0
 31 34  1  0  0  0  0
 32 31  2  0  0  0  0
 33 30  1  0  0  0  0
 34 39  1  0  0  0  0
 35 36  1  0  0  0  0
 36 37  2  0  0  0  0
 38 37  1  0  0  0  0
 39 38  2  0  0  0  0
M  END
>  <minimizedAffinity>
-7.16985703

$$$$

 OpenBabel09122223483D

 39 40  0  0  0  0  0  0  0  0999 V2000
    4.4260   -5.8720    3.4930 C   0  0  0  0  0  0  0  0  0  0  0  0
    4.2470   -7.0890    4.0610 C   0  0  0  0  0  2  0  0  0  0  0  0
    3.1240   -7.5030    4.9050 C   0  0  0  0  0  0  0  0  0  0  0  0
    2.0240   -8.1440    4.3240 C   0  0  0  0  0  3  0  0  0  0  0  0
    0.9360   -8.5210    5.1130 C   0  0  0  0  0  3  0  0  0  0  0  0
    0.9660   -8.2870    6.4880 C   0  0  0  0  0  0  0  0  0  0  0  0
    2.0580   -7.6450    7.0760 C   0  0  0  0  0  3  0  0  0  0  0  0
    3.1380   -7.2560    6.2830 C   0  0  0  0  0  3  0  0  0  0  0  0
   -0.1400   -8.6470    7.2250 O   0  0  0  0  0  0  0  0  0  0  0  0
   -0.9950   -9.5470    6.6260 C   0  0  0  0  0  0  0  0  0  0  0  0
   -0.6310  -10.8910    6.4900 C   0  0  0  0  0  3  0  0  0  0  0  0
   -1.4820  -11.7840    5.8360 C   0  0  0  0  0  3  0  0  0  0  0  0
   -2.6920  -11.3360    5.3080 C   0  0  0  0  0  3  0  0  0  0  0  0
   -3.0520   -9.9920    5.4270 C   0  0  0  0  0  3  0  0  0  0  0  0
   -2.2000   -9.0960    6.0780 C   0  0  0  0  0  0  0  0  0  0  0  0
   -2.7350   -7.2800    6.2090 Br  0  0  0  0  0  0  0  0  0  0  0  0
    6.4230   -4.8190    2.6560 O   0  0  0  0  0  0  0  0  0  0  0  0
    5.7420   -5.8600    2.6720 C   0  0  0  0  0  0  0  0  0  0  0  0
    6.3020   -6.9390    2.0320 N   0  0  0  0  0  0  0  0  0  0  0  0
    7.2000   -6.7510    1.6180 H   0  0  0  0  0  0  0  0  0  0  0  0
    5.8270   -8.2910    2.1130 C   0  0  0  0  0  2  0  0  0  0  0  0
    5.8040   -9.6600    3.6160 C   0  0  0  0  0  1  0  0  0  0  0  0
    4.4790  -10.8670    3.6660 C   0  0  0  0  0  3  0  0  0  0  0  0
    3.2820  -10.8320    2.4040 C   0  0  0  0  0  3  0  0  0  0  0  0
    3.3070   -9.7080    1.0470 C   0  0  0  0  0  3  0  0  0  0  0  0
    4.5450   -8.4670    0.8300 C   0  0  0  0  0  0  0  0  0  0  0  0
    4.5140   -7.6720   -0.4470 C   0  0  0  0  0  0  0  0  0  0  0  0
    5.3860   -7.9810   -1.3180 O   0  0  0  0  0  0  0  0  0  0  0  0
    3.6490   -6.7520   -0.5530 O   0  0  0  0  0  1  0  0  0  0  0  0
    3.4390   -4.8930    3.6940 N   0  0  0  0  0  4  0  0  0  0  0  0
    3.2450   -3.7660    4.4870 C   0  0  0  0  0  0  0  0  0  0  0  0
    2.2740   -3.0350    4.2880 O   0  0  0  0  0  0  0  0  0  0  0  0
    2.5780   -5.0710    3.1920 H   0  0  0  0  0  0  0  0  0  0  0  0
    4.3150   -3.3910    5.4970 C   0  0  0  0  0  2  0  0  0  0  0  0
    6.3340   -3.4760    5.7070 C   0  0  0  0  0  1  0  0  0  0  0  0
    7.1540   -2.1590    6.6160 C   0  0  0  0  0  3  0  0  0  0  0  0
    6.1680   -0.8920    7.3150 C   0  0  0  0  0  3  0  0  0  0  0  0
    4.4000   -0.8380    7.2250 C   0  0  0  0  0  3  0  0  0  0  0  0
    3.4510   -2.0440    6.3600 C   0  0  0  0  0  3  0  0  0  0  0  0
  1 30  2  0  0  0  0
  1  2  1  0  0  0  0
  2  3  1  0  0  0  0
  3  8  1  0  0  0  0
  4  3  2  0  0  0  0
  4  5  1  0  0  0  0
  5  6  2  0  0  0  0
  6  7  1  0  0  0  0
  6  9  1  0  0  0  0
  8  7  2  0  0  0  0
 10  9  1  0  0  0  0
 11 10  1  0  0  0  0
 12 11  2  0  0  0  0
 13 14  2  0  0  0  0
 13 12  1  0  0  0  0
 14 15  1  0  0  0  0
 15 16  1  0  0  0  0
 15 10  2  0  0  0  0
 17 18  2  0  0  0  0
 18  1  1  0  0  0  0
 19 21  1  0  0  0  0
 19 18  1  0  0  0  0
 20 19  1  0  0  0  0
 22 23  1  0  0  0  0
 24 23  2  0  0  0  0
 25 24  1  0  0  0  0
 26 25  2  0  0  0  0
 26 21  1  0  0  0  0
 27 26  1  0  0  0  0
 28 27  2  0  0  0  0
 29 27  1  0  0  0  0
 30 31  1  0  0  0  0
 31 34  1  0  0  0  0
 32 31  2  0  0  0  0
 33 30  1  0  0  0  0
 34 39  1  0  0  0  0
 35 36  1  0  0  0  0
 36 37  2  0  0  0  0
 38 37  1  0  0  0  0
 39 38  2  0  0  0  0
M  END
>  <minimizedAffinity>
-6.9480505

$$$$

 OpenBabel09122223483D

 39 40  0  0  0  0  0  0  0  0999 V2000
    5.5750   -6.3550    2.1450 C   0  0  0  0  0  0  0  0  0  0  0  0
    5.8630   -5.1020    1.7200 C   0  0  0  0  0  2  0  0  0  0  0  0
    7.1860   -4.5830    1.3620 C   0  0  0  0  0  0  0  0  0  0  0  0
    7.8660   -3.7500    2.2570 C   0  0  0  0  0  3  0  0  0  0  0  0
    9.1160   -3.2290    1.9180 C   0  0  0  0  0  3  0  0  0  0  0  0
    9.6980   -3.5710    0.6970 C   0  0  0  0  0  0  0  0  0  0  0  0
    9.0260   -4.3990   -0.2040 C   0  0  0  0  0  3  0  0  0  0  0  0
    7.7690   -4.9060    0.1310 C   0  0  0  0  0  3  0  0  0  0  0  0
   10.9180   -3.0120    0.3880 O   0  0  0  0  0  0  0  0  0  0  0  0
   10.8880   -1.9500   -0.4900 C   0  0  0  0  0  0  0  0  0  0  0  0
   10.0800   -0.8370   -0.2310 C   0  0  0  0  0  3  0  0  0  0  0  0
   10.0170    0.2100   -1.1520 C   0  0  0  0  0  3  0  0  0  0  0  0
   10.7500    0.1450   -2.3360 C   0  0  0  0  0  3  0  0  0  0  0  0
   11.5440   -0.9710   -2.6060 C   0  0  0  0  0  3  0  0  0  0  0  0
   11.6070   -2.0230   -1.6870 C   0  0  0  0  0  0  0  0  0  0  0  0
   12.6980   -3.5180   -2.1040 Br  0  0  0  0  0  0  0  0  0  0  0  0
    3.3780   -7.2050    1.6450 O   0  0  0  0  0  0  0  0  0  0  0  0
    4.0520   -6.4870    2.4060 C   0  0  0  0  0  0  0  0  0  0  0  0
    3.3690   -5.9680    3.4800 N   0  0  0  0  0  0  0  0  0  0  0  0
    2.3980   -6.2270    3.5150 H   0  0  0  0  0  0  0  0  0  0  0  0
    3.9710   -5.3140    4.6080 C   0  0  0  0  0  2  0  0  0  0  0  0
    5.4210   -3.8990    4.7730 C   0  0  0  0  0  1  0  0  0  0  0  0
    5.3590   -2.7540    6.1530 C   0  0  0  0  0  3  0  0  0  0  0  0
    4.0700   -2.9240    7.3100 C   0  0  0  0  0  3  0  0  0  0  0  0
    2.8370   -4.1810    7.2390 C   0  0  0  0  0  3  0  0  0  0  0  0
    2.7560   -5.4000    5.9640 C   0  0  0  0  0  0  0  0  0  0  0  0
    1.7310   -6.4900    6.1110 C   0  0  0  0  0  0  0  0  0  0  0  0
    0.7810   -6.4810    5.2650 O   0  0  0  0  0  0  0  0  0  0  0  0
    1.8710   -7.3130    7.0630 O   0  0  0  0  0  1  0  0  0  0  0  0
    6.6240   -7.2840    2.2390 N   0  0  0  0  0  4  0  0  0  0  0  0
    6.8150   -8.5900    2.6820 C   0  0  0  0  0  0  0  0  0  0  0  0
    7.8880   -9.1580    2.4730 O   0  0  0  0  0  0  0  0  0  0  0  0
    7.5310   -6.9030    1.9980 H   0  0  0  0  0  0  0  0  0  0  0  0
    5.6410   -9.3300    3.2960 C   0  0  0  0  0  2  0  0  0  0  0  0
    4.3530   -9.1520    4.8580 C   0  0  0  0  0  1  0  0  0  0  0  0
    2.6700   -9.7480    4.6470 C   0  0  0  0  0  3  0  0  0  0  0  0
    2.2350  -10.4940    3.1240 C   0  0  0  0  0  3  0  0  0  0  0  0
    3.3590  -10.7430    1.7780 C   0  0  0  0  0  3  0  0  0  0  0  0
    5.0350  -10.2040    1.8210 C   0  0  0  0  0  3  0  0  0  0  0  0
  1 30  2  0  0  0  0
  1 18  1  0  0  0  0
  2  1  1  0  0  0  0
  3  2  1  0  0  0  0
  3  4  1  0  0  0  0
  5  4  2  0  0  0  0
  6  5  1  0  0  0  0
  7  8  1  0  0  0  0
  7  6  2  0  0  0  0
  8  3  2  0  0  0  0
  9  6  1  0  0  0  0
 10 11  1  0  0  0  0
 10  9  1  0  0  0  0
 12 11  2  0  0  0  0
 13 12  1  0  0  0  0
 14 13  2  0  0  0  0
 14 15  1  0  0  0  0
 15 10  2  0  0  0  0
 16 15  1  0  0  0  0
 17 18  2  0  0  0  0
 18 19  1  0  0  0  0
 19 20  1  0  0  0  0
 19 21  1  0  0  0  0
 21 26  1  0  0  0  0
 22 23  1  0  0  0  0
 23 24  2  0  0  0  0
 25 24  1  0  0  0  0
 26 27  1  0  0  0  0
 26 25  2  0  0  0  0
 27 29  1  0  0  0  0
 28 27  2  0  0  0  0
 30 31  1  0  0  0  0
 31 34  1  0  0  0  0
 32 31  2  0  0  0  0
 33 30  1  0  0  0  0
 36 35  1  0  0  0  0
 37 36  2  0  0  0  0
 38 39  2  0  0  0  0
 38 37  1  0  0  0  0
 39 34  1  0  0  0  0
M  END
>  <minimizedAffinity>
-6.78729916

$$$$

 OpenBabel09122223483D

 39 40  0  0  0  0  0  0  0  0999 V2000
    3.4350   -8.4690    3.1200 C   0  0  0  0  0  0  0  0  0  0  0  0
    3.0450   -7.1820    3.2900 C   0  0  0  0  0  2  0  0  0  0  0  0
    3.8640   -6.0820    3.8050 C   0  0  0  0  0  0  0  0  0  0  0  0
    4.5820   -5.2810    2.9110 C   0  0  0  0  0  3  0  0  0  0  0  0
    5.3870   -4.2450    3.3900 C   0  0  0  0  0  3  0  0  0  0  0  0
    5.4430   -3.9910    4.7600 C   0  0  0  0  0  0  0  0  0  0  0  0
    4.7310   -4.7870    5.6610 C   0  0  0  0  0  3  0  0  0  0  0  0
    3.9400   -5.8320    5.1800 C   0  0  0  0  0  3  0  0  0  0  0  0
    6.2700   -2.9790    5.1940 O   0  0  0  0  0  0  0  0  0  0  0  0
    7.5120   -2.9220    4.5980 C   0  0  0  0  0  0  0  0  0  0  0  0
    7.6490   -3.1290    3.2210 C   0  0  0  0  0  3  0  0  0  0  0  0
    8.9160   -3.1200    2.6350 C   0  0  0  0  0  3  0  0  0  0  0  0
   10.0490   -2.9150    3.4230 C   0  0  0  0  0  3  0  0  0  0  0  0
    9.9180   -2.7250    4.7990 C   0  0  0  0  0  3  0  0  0  0  0  0
    8.6500   -2.7360    5.3890 C   0  0  0  0  0  0  0  0  0  0  0  0
    8.5280   -2.4770    7.2640 Br  0  0  0  0  0  0  0  0  0  0  0  0
    2.4030   -9.8350    1.4260 O   0  0  0  0  0  0  0  0  0  0  0  0
    2.2620   -9.3040    2.5430 C   0  0  0  0  0  0  0  0  0  0  0  0
    1.0950   -9.6160    3.1980 N   0  0  0  0  0  0  0  0  0  0  0  0
    0.4890  -10.2350    2.6870 H   0  0  0  0  0  0  0  0  0  0  0  0
    0.8120   -9.3220    4.5740 C   0  0  0  0  0  2  0  0  0  0  0  0
    1.8880   -8.4170    6.0440 C   0  0  0  0  0  1  0  0  0  0  0  0
    1.0150   -7.5010    7.3160 C   0  0  0  0  0  3  0  0  0  0  0  0
   -0.7230   -7.4510    7.2510 C   0  0  0  0  0  3  0  0  0  0  0  0
   -1.6930   -8.2810    6.0360 C   0  0  0  0  0  3  0  0  0  0  0  0
   -1.0020   -9.2400    4.7230 C   0  0  0  0  0  0  0  0  0  0  0  0
   -1.9560  -10.0010    3.8440 C   0  0  0  0  0  0  0  0  0  0  0  0
   -2.9970   -9.3710    3.4740 O   0  0  0  0  0  0  0  0  0  0  0  0
   -1.6710  -11.2020    3.5580 O   0  0  0  0  0  1  0  0  0  0  0  0
    4.7600   -8.8090    3.4350 N   0  0  0  0  0  4  0  0  0  0  0  0
    6.0230   -8.7000    2.8590 C   0  0  0  0  0  0  0  0  0  0  0  0
    7.0230   -8.9960    3.5120 O   0  0  0  0  0  0  0  0  0  0  0  0
    4.8510   -9.3620    4.2780 H   0  0  0  0  0  0  0  0  0  0  0  0
    6.1420   -8.0870    1.4750 C   0  0  0  0  0  2  0  0  0  0  0  0
    4.9440   -7.4450   -0.0350 C   0  0  0  0  0  1  0  0  0  0  0  0
    5.4910   -6.0450   -1.0210 C   0  0  0  0  0  3  0  0  0  0  0  0
    7.0500   -5.3320   -0.6630 C   0  0  0  0  0  3  0  0  0  0  0  0
    8.1540   -5.9250    0.5880 C   0  0  0  0  0  3  0  0  0  0  0  0
    7.7610   -7.2760    1.6470 C   0  0  0  0  0  3  0  0  0  0  0  0
  1  2  1  0  0  0  0
  1 30  2  0  0  0  0
  2  3  1  0  0  0  0
  3  8  1  0  0  0  0
  4  5  1  0  0  0  0
  4  3  2  0  0  0  0
  5  6  2  0  0  0  0
  6  9  1  0  0  0  0
  6  7  1  0  0  0  0
  8  7  2  0  0  0  0
 10  9  1  0  0  0  0
 10 15  1  0  0  0  0
 11 10  2  0  0  0  0
 12 11  1  0  0  0  0
 12 13  2  0  0  0  0
 13 14  1  0  0  0  0
 14 15  2  0  0  0  0
 15 16  1  0  0  0  0
 17 18  2  0  0  0  0
 18  1  1  0  0  0  0
 18 19  1  0  0  0  0
 19 21  1  0  0  0  0
 20 19  1  0  0  0  0
 21 26  1  0  0  0  0
 22 23  1  0  0  0  0
 24 23  2  0  0  0  0
 25 24  1  0  0  0  0
 26 25  2  0  0  0  0
 27 26  1  0  0  0  0
 28 27  2  0  0  0  0
 29 27  1  0  0  0  0
 30 33  1  0  0  0  0
 31 30  1  0  0  0  0
 31 32  2  0  0  0  0
 34 39  1  0  0  0  0
 34 31  1  0  0  0  0
 36 37  2  0  0  0  0
 36 35  1  0  0  0  0
 37 38  1  0  0  0  0
 38 39  2  0  0  0  0
M  END
>  <minimizedAffinity>
-6.51130104

$$$$
