
 OpenBabel09132204463D

 39 40  0  0  0  0  0  0  0  0999 V2000
    5.2190   -5.2540    2.9980 C   0  0  0  0  0  0  0  0  0  0  0  0
    6.2410   -4.5350    3.5210 C   0  0  0  0  0  2  0  0  0  0  0  0
    7.2410   -3.7670    2.7750 C   0  0  0  0  0  0  0  0  0  0  0  0
    7.6350   -2.5090    3.2420 C   0  0  0  0  0  3  0  0  0  0  0  0
    8.5680   -1.7560    2.5280 C   0  0  0  0  0  3  0  0  0  0  0  0
    9.1310   -2.2790    1.3640 C   0  0  0  0  0  0  0  0  0  0  0  0
    8.7420   -3.5330    0.8870 C   0  0  0  0  0  3  0  0  0  0  0  0
    7.7980   -4.2770    1.5960 C   0  0  0  0  0  3  0  0  0  0  0  0
   10.0250   -1.4920    0.6720 O   0  0  0  0  0  0  0  0  0  0  0  0
   10.8790   -2.1590   -0.1790 C   0  0  0  0  0  0  0  0  0  0  0  0
   11.4920   -3.3530    0.2210 C   0  0  0  0  0  3  0  0  0  0  0  0
   12.3950   -3.9940   -0.6280 C   0  0  0  0  0  3  0  0  0  0  0  0
   12.6980   -3.4410   -1.8720 C   0  0  0  0  0  3  0  0  0  0  0  0
   12.1020   -2.2430   -2.2680 C   0  0  0  0  0  3  0  0  0  0  0  0
   11.1990   -1.5970   -1.4180 C   0  0  0  0  0  0  0  0  0  0  0  0
   10.4200    0.0310   -2.0030 Br  0  0  0  0  0  0  0  0  0  0  0  0
    4.5940   -7.1020    4.4100 O   0  0  0  0  0  0  0  0  0  0  0  0
    4.3930   -5.9040    4.1380 C   0  0  0  0  0  0  0  0  0  0  0  0
    3.5170   -5.2520    4.9720 N   0  0  0  0  0  0  0  0  0  0  0  0
    3.1360   -5.8300    5.7020 H   0  0  0  0  0  0  0  0  0  0  0  0
    3.3050   -3.8330    5.0080 C   0  0  0  0  0  2  0  0  0  0  0  0
    1.7930   -2.6440    4.3490 C   0  0  0  0  0  1  0  0  0  0  0  0
    1.4440   -1.1210    5.2300 C   0  0  0  0  0  3  0  0  0  0  0  0
    2.4380   -0.7120    6.5990 C   0  0  0  0  0  3  0  0  0  0  0  0
    3.8000   -1.6800    7.1560 C   0  0  0  0  0  3  0  0  0  0  0  0
    4.2970   -3.1970    6.3980 C   0  0  0  0  0  0  0  0  0  0  0  0
    5.5610   -3.8400    6.8980 C   0  0  0  0  0  0  0  0  0  0  0  0
    6.6120   -3.1270    6.8380 O   0  0  0  0  0  0  0  0  0  0  0  0
    5.4940   -5.0340    7.3160 O   0  0  0  0  0  1  0  0  0  0  0  0
    5.0590   -5.2640    1.6030 N   0  0  0  0  0  4  0  0  0  0  0  0
    4.9430   -6.2020    0.5810 C   0  0  0  0  0  0  0  0  0  0  0  0
    4.6620   -5.8350   -0.5610 O   0  0  0  0  0  0  0  0  0  0  0  0
    5.1180   -4.3480    1.1770 H   0  0  0  0  0  0  0  0  0  0  0  0
    5.0360   -7.6770    0.9300 C   0  0  0  0  0  2  0  0  0  0  0  0
    6.1040   -8.9100    2.1410 C   0  0  0  0  0  1  0  0  0  0  0  0
    5.2790  -10.3490    2.8340 C   0  0  0  0  0  3  0  0  0  0  0  0
    3.6100  -10.6440    2.3960 C   0  0  0  0  0  3  0  0  0  0  0  0
    2.6800   -9.6370    1.2750 C   0  0  0  0  0  3  0  0  0  0  0  0
    3.3380   -8.1860    0.5230 C   0  0  0  0  0  3  0  0  0  0  0  0
  1  2  1  0  0  0  0
  1 18  1  0  0  0  0
  3  4  1  0  0  0  0
  3  2  1  0  0  0  0
  5  4  2  0  0  0  0
  6  5  1  0  0  0  0
  7  6  2  0  0  0  0
  7  8  1  0  0  0  0
  8  3  2  0  0  0  0
  9  6  1  0  0  0  0
 10 11  1  0  0  0  0
 10  9  1  0  0  0  0
 12 11  2  0  0  0  0
 13 12  1  0  0  0  0
 14 13  2  0  0  0  0
 14 15  1  0  0  0  0
 15 10  2  0  0  0  0
 16 15  1  0  0  0  0
 18 17  2  0  0  0  0
 18 19  1  0  0  0  0
 19 21  1  0  0  0  0
 19 20  1  0  0  0  0
 21 26  1  0  0  0  0
 22 23  1  0  0  0  0
 23 24  2  0  0  0  0
 24 25  1  0  0  0  0
 26 27  1  0  0  0  0
 26 25  2  0  0  0  0
 27 29  1  0  0  0  0
 28 27  2  0  0  0  0
 30  1  2  0  0  0  0
 31 34  1  0  0  0  0
 31 30  1  0  0  0  0
 32 31  2  0  0  0  0
 33 30  1  0  0  0  0
 35 36  1  0  0  0  0
 37 36  2  0  0  0  0
 38 37  1  0  0  0  0
 39 34  1  0  0  0  0
 39 38  2  0  0  0  0
M  END
>  <minimizedAffinity>
-7.32283354

$$$$
