
 OpenBabel09132204463D

 39 40  0  0  0  0  0  0  0  0999 V2000
    3.4350   -8.4690    3.1200 C   0  0  0  0  0  0  0  0  0  0  0  0
    3.0450   -7.1820    3.2900 C   0  0  0  0  0  2  0  0  0  0  0  0
    3.8640   -6.0820    3.8050 C   0  0  0  0  0  0  0  0  0  0  0  0
    4.5820   -5.2810    2.9110 C   0  0  0  0  0  3  0  0  0  0  0  0
    5.3870   -4.2450    3.3900 C   0  0  0  0  0  3  0  0  0  0  0  0
    5.4430   -3.9910    4.7600 C   0  0  0  0  0  0  0  0  0  0  0  0
    4.7310   -4.7870    5.6610 C   0  0  0  0  0  3  0  0  0  0  0  0
    3.9400   -5.8320    5.1800 C   0  0  0  0  0  3  0  0  0  0  0  0
    6.2700   -2.9790    5.1940 O   0  0  0  0  0  0  0  0  0  0  0  0
    7.5120   -2.9220    4.5980 C   0  0  0  0  0  0  0  0  0  0  0  0
    7.6490   -3.1290    3.2210 C   0  0  0  0  0  3  0  0  0  0  0  0
    8.9160   -3.1200    2.6350 C   0  0  0  0  0  3  0  0  0  0  0  0
   10.0490   -2.9150    3.4230 C   0  0  0  0  0  3  0  0  0  0  0  0
    9.9180   -2.7250    4.7990 C   0  0  0  0  0  3  0  0  0  0  0  0
    8.6500   -2.7360    5.3890 C   0  0  0  0  0  0  0  0  0  0  0  0
    8.5280   -2.4770    7.2640 Br  0  0  0  0  0  0  0  0  0  0  0  0
    2.4030   -9.8350    1.4260 O   0  0  0  0  0  0  0  0  0  0  0  0
    2.2620   -9.3040    2.5430 C   0  0  0  0  0  0  0  0  0  0  0  0
    1.0950   -9.6160    3.1980 N   0  0  0  0  0  0  0  0  0  0  0  0
    0.4890  -10.2350    2.6870 H   0  0  0  0  0  0  0  0  0  0  0  0
    0.8120   -9.3220    4.5740 C   0  0  0  0  0  2  0  0  0  0  0  0
    1.8880   -8.4170    6.0440 C   0  0  0  0  0  1  0  0  0  0  0  0
    1.0150   -7.5010    7.3160 C   0  0  0  0  0  3  0  0  0  0  0  0
   -0.7230   -7.4510    7.2510 C   0  0  0  0  0  3  0  0  0  0  0  0
   -1.6930   -8.2810    6.0360 C   0  0  0  0  0  3  0  0  0  0  0  0
   -1.0020   -9.2400    4.7230 C   0  0  0  0  0  0  0  0  0  0  0  0
   -1.9560  -10.0010    3.8440 C   0  0  0  0  0  0  0  0  0  0  0  0
   -2.9970   -9.3710    3.4740 O   0  0  0  0  0  0  0  0  0  0  0  0
   -1.6710  -11.2020    3.5580 O   0  0  0  0  0  1  0  0  0  0  0  0
    4.7600   -8.8090    3.4350 N   0  0  0  0  0  4  0  0  0  0  0  0
    6.0230   -8.7000    2.8590 C   0  0  0  0  0  0  0  0  0  0  0  0
    7.0230   -8.9960    3.5120 O   0  0  0  0  0  0  0  0  0  0  0  0
    4.8510   -9.3620    4.2780 H   0  0  0  0  0  0  0  0  0  0  0  0
    6.1420   -8.0870    1.4750 C   0  0  0  0  0  2  0  0  0  0  0  0
    4.9440   -7.4450   -0.0350 C   0  0  0  0  0  1  0  0  0  0  0  0
    5.4910   -6.0450   -1.0210 C   0  0  0  0  0  3  0  0  0  0  0  0
    7.0500   -5.3320   -0.6630 C   0  0  0  0  0  3  0  0  0  0  0  0
    8.1540   -5.9250    0.5880 C   0  0  0  0  0  3  0  0  0  0  0  0
    7.7610   -7.2760    1.6470 C   0  0  0  0  0  3  0  0  0  0  0  0
  1  2  1  0  0  0  0
  1 30  2  0  0  0  0
  2  3  1  0  0  0  0
  3  8  1  0  0  0  0
  4  5  1  0  0  0  0
  4  3  2  0  0  0  0
  5  6  2  0  0  0  0
  6  9  1  0  0  0  0
  6  7  1  0  0  0  0
  8  7  2  0  0  0  0
 10  9  1  0  0  0  0
 10 15  1  0  0  0  0
 11 10  2  0  0  0  0
 12 11  1  0  0  0  0
 12 13  2  0  0  0  0
 13 14  1  0  0  0  0
 14 15  2  0  0  0  0
 15 16  1  0  0  0  0
 17 18  2  0  0  0  0
 18  1  1  0  0  0  0
 18 19  1  0  0  0  0
 19 21  1  0  0  0  0
 20 19  1  0  0  0  0
 21 26  1  0  0  0  0
 22 23  1  0  0  0  0
 24 23  2  0  0  0  0
 25 24  1  0  0  0  0
 26 25  2  0  0  0  0
 27 26  1  0  0  0  0
 28 27  2  0  0  0  0
 29 27  1  0  0  0  0
 30 33  1  0  0  0  0
 31 30  1  0  0  0  0
 31 32  2  0  0  0  0
 34 39  1  0  0  0  0
 34 31  1  0  0  0  0
 36 37  2  0  0  0  0
 36 35  1  0  0  0  0
 37 38  1  0  0  0  0
 38 39  2  0  0  0  0
M  END
>  <minimizedAffinity>
-6.51130104

$$$$
