
 OpenBabel09132204463D

 39 40  0  0  0  0  0  0  0  0999 V2000
    3.7940   -8.3140    1.1380 C   0  0  0  0  0  0  0  0  0  0  0  0
    4.3500   -7.6870    0.0730 C   0  0  0  0  0  2  0  0  0  0  0  0
    5.6190   -6.9540    0.0550 C   0  0  0  0  0  0  0  0  0  0  0  0
    6.6350   -7.3120    0.9470 C   0  0  0  0  0  3  0  0  0  0  0  0
    7.8390   -6.6060    0.9580 C   0  0  0  0  0  3  0  0  0  0  0  0
    8.0370   -5.5650    0.0520 C   0  0  0  0  0  0  0  0  0  0  0  0
    7.0270   -5.1970   -0.8400 C   0  0  0  0  0  3  0  0  0  0  0  0
    5.8180   -5.8950   -0.8390 C   0  0  0  0  0  3  0  0  0  0  0  0
    9.2270   -4.8740    0.1150 O   0  0  0  0  0  0  0  0  0  0  0  0
    9.1890   -3.6710    0.7870 C   0  0  0  0  0  0  0  0  0  0  0  0
    8.3750   -3.5130    1.9140 C   0  0  0  0  0  3  0  0  0  0  0  0
    8.3040   -2.2760    2.5570 C   0  0  0  0  0  3  0  0  0  0  0  0
    9.0360   -1.1930    2.0720 C   0  0  0  0  0  3  0  0  0  0  0  0
    9.8360   -1.3420    0.9380 C   0  0  0  0  0  3  0  0  0  0  0  0
    9.9060   -2.5790    0.2900 C   0  0  0  0  0  0  0  0  0  0  0  0
   11.0050   -2.7280   -1.2500 Br  0  0  0  0  0  0  0  0  0  0  0  0
    1.8610   -8.5330   -0.2800 O   0  0  0  0  0  0  0  0  0  0  0  0
    2.4540   -8.9730    0.7220 C   0  0  0  0  0  0  0  0  0  0  0  0
    1.8920  -10.0890    1.2930 N   0  0  0  0  0  0  0  0  0  0  0  0
    1.0580  -10.4120    0.8320 H   0  0  0  0  0  0  0  0  0  0  0  0
    2.5110  -10.9080    2.2970 C   0  0  0  0  0  2  0  0  0  0  0  0
    4.3810  -11.6820    2.4900 C   0  0  0  0  0  1  0  0  0  0  0  0
    5.0500  -11.9260    4.1360 C   0  0  0  0  0  3  0  0  0  0  0  0
    4.0530  -11.5140    5.5020 C   0  0  0  0  0  3  0  0  0  0  0  0
    2.4030  -10.9080    5.3760 C   0  0  0  0  0  3  0  0  0  0  0  0
    1.5810  -10.6250    3.8390 C   0  0  0  0  0  0  0  0  0  0  0  0
    0.1290  -10.2380    3.8900 C   0  0  0  0  0  0  0  0  0  0  0  0
   -0.7040  -11.1580    3.6130 O   0  0  0  0  0  0  0  0  0  0  0  0
   -0.1560   -9.0390    4.1800 O   0  0  0  0  0  1  0  0  0  0  0  0
    4.4920   -8.3000    2.3570 N   0  0  0  0  0  4  0  0  0  0  0  0
    4.5140   -7.5510    3.5290 C   0  0  0  0  0  0  0  0  0  0  0  0
    5.1890   -7.9280    4.4870 O   0  0  0  0  0  0  0  0  0  0  0  0
    5.2580   -8.9620    2.3970 H   0  0  0  0  0  0  0  0  0  0  0  0
    3.5940   -6.3490    3.6440 C   0  0  0  0  0  2  0  0  0  0  0  0
    2.0600   -5.6850    4.8010 C   0  0  0  0  0  1  0  0  0  0  0  0
    1.9200   -3.9180    5.1000 C   0  0  0  0  0  3  0  0  0  0  0  0
    3.0820   -2.8500    4.3430 C   0  0  0  0  0  3  0  0  0  0  0  0
    4.3750   -3.3900    3.2590 C   0  0  0  0  0  3  0  0  0  0  0  0
    4.6550   -5.0870    2.8770 C   0  0  0  0  0  3  0  0  0  0  0  0
  1 30  2  0  0  0  0
  2  1  1  0  0  0  0
  3  2  1  0  0  0  0
  3  4  1  0  0  0  0
  4  5  2  0  0  0  0
  6  9  1  0  0  0  0
  6  5  1  0  0  0  0
  7  8  1  0  0  0  0
  7  6  2  0  0  0  0
  8  3  2  0  0  0  0
  9 10  1  0  0  0  0
 10 11  1  0  0  0  0
 11 12  2  0  0  0  0
 13 12  1  0  0  0  0
 14 13  2  0  0  0  0
 15 10  2  0  0  0  0
 15 14  1  0  0  0  0
 16 15  1  0  0  0  0
 17 18  2  0  0  0  0
 18  1  1  0  0  0  0
 18 19  1  0  0  0  0
 19 21  1  0  0  0  0
 20 19  1  0  0  0  0
 21 26  1  0  0  0  0
 22 23  1  0  0  0  0
 23 24  2  0  0  0  0
 25 24  1  0  0  0  0
 26 27  1  0  0  0  0
 26 25  2  0  0  0  0
 27 29  1  0  0  0  0
 28 27  2  0  0  0  0
 30 33  1  0  0  0  0
 30 31  1  0  0  0  0
 31 34  1  0  0  0  0
 31 32  2  0  0  0  0
 35 36  1  0  0  0  0
 37 36  2  0  0  0  0
 38 37  1  0  0  0  0
 39 38  2  0  0  0  0
 39 34  1  0  0  0  0
M  END
>  <minimizedAffinity>
-9.42184639

$$$$
