
 OpenBabel09132204463D

 49 54  0  0  1  0  0  0  0  0999 V2000
    5.3230   -9.5640  -17.1490 C   0  0  0  0  0  0  0  0  0  0  0  0
    4.4850  -10.6790  -17.1460 C   0  0  0  0  0  3  0  0  0  0  0  0
    3.1020  -10.4990  -17.1860 C   0  0  0  0  0  3  0  0  0  0  0  0
    2.5540   -9.2090  -17.2680 C   0  0  0  0  0  0  0  0  0  0  0  0
    3.4170   -8.1110  -17.2910 C   0  0  0  0  0  0  0  0  0  0  0  0
    2.9310   -6.8610  -17.3290 F   0  0  0  0  0  0  0  0  0  0  0  0
    4.7980   -8.2790  -17.2520 C   0  0  0  0  0  3  0  0  0  0  0  0
    1.1060   -9.0460  -17.2300 C   0  0  0  0  0  0  0  0  0  0  0  0
    0.5400   -7.8640  -17.0720 N   0  0  0  0  0  0  0  0  0  0  0  0
   -0.8130   -8.0740  -17.1180 C   0  0  0  0  0  0  0  0  0  0  0  0
   -1.8650   -7.1490  -17.0320 C   0  0  0  0  0  3  0  0  0  0  0  0
   -3.1990   -7.5960  -17.1070 C   0  0  0  0  0  0  0  0  0  0  0  0
   -3.4440   -8.9690  -17.2710 C   0  0  0  0  0  3  0  0  0  0  0  0
   -2.4080   -9.9080  -17.3550 C   0  0  0  0  0  3  0  0  0  0  0  0
   -1.0950   -9.4270  -17.2690 C   0  0  0  0  0  0  0  0  0  0  0  0
    0.1470  -10.0430  -17.2870 N   0  0  0  0  0  0  0  0  0  0  0  0
    0.3160  -11.4940  -17.2980 C   0  0  0  0  0  3  0  0  0  0  0  0
    1.5190  -11.9630  -16.4680 C   0  0  0  0  0  2  0  0  0  0  0  0
    1.7600  -13.4620  -16.6450 C   0  0  0  0  0  2  0  0  0  0  0  0
    0.5070  -14.2790  -16.3420 C   0  0  0  0  0  2  0  0  0  0  0  0
   -0.6930  -13.8060  -17.1610 C   0  0  0  0  0  2  0  0  0  0  0  0
   -0.9450  -12.3110  -16.9680 C   0  0  0  0  0  2  0  0  0  0  0  0
   -4.3490   -6.6120  -17.0120 C   0  0  0  0  0  0  0  0  0  0  0  0
   -5.4660   -7.0570  -16.5990 O   0  0  0  0  0  1  0  0  0  0  0  0
   -4.1120   -5.4110  -17.3580 O   0  0  0  0  0  0  0  0  0  0  0  0
    6.6830   -9.7080  -17.0820 O   0  0  0  0  0  0  0  0  0  0  0  0
    7.2040   -9.3300  -15.7890 C   0  0  2  0  0  3  0  0  0  0  0  0
    5.5690  -11.9540  -12.7450 C   0  0  0  0  0  0  0  0  0  0  0  0
    5.5810  -12.3660  -14.0810 C   0  0  0  0  0  3  0  0  0  0  0  0
    6.0990  -11.5230  -15.0670 C   0  0  0  0  0  3  0  0  0  0  0  0
    6.6090  -10.2570  -14.7310 C   0  0  0  0  0  0  0  0  0  0  0  0
    6.6260   -9.8730  -13.3800 C   0  0  0  0  0  3  0  0  0  0  0  0
    6.1220  -10.7200  -12.3910 C   0  0  0  0  0  3  0  0  0  0  0  0
    5.0720  -15.0920  -10.6530 C   0  0  0  0  0  1  0  0  0  0  0  0
    5.7190  -14.0870  -11.4790 N   0  0  0  0  0  0  0  0  0  0  0  0
    7.0690  -14.3950  -11.9270 C   0  0  0  0  0  1  0  0  0  0  0  0
    5.0490  -12.8870  -11.7160 C   0  0  0  0  0  0  0  0  0  0  0  0
    4.0320  -12.5530  -11.1110 O   0  0  0  0  0  0  0  0  0  0  0  0
    6.9230   -7.8500  -15.5110 C   0  0  0  0  0  0  0  0  0  0  0  0
    6.1040   -7.4320  -14.4470 C   0  0  0  0  0  3  0  0  0  0  0  0
    5.8820   -6.0740  -14.2080 C   0  0  0  0  0  3  0  0  0  0  0  0
    6.4900   -5.1180  -15.0240 C   0  0  0  0  0  0  0  0  0  0  0  0
    7.2820   -5.5120  -16.1050 C   0  0  0  0  0  3  0  0  0  0  0  0
    7.5010   -6.8710  -16.3420 C   0  0  0  0  0  3  0  0  0  0  0  0
    6.2340   -3.6840  -14.7600 C   0  0  0  0  0  0  0  0  0  0  0  0
    6.6230   -3.2270  -13.6880 O   0  0  0  0  0  0  0  0  0  0  0  0
    5.5670   -2.9310  -15.7250 N   0  0  0  0  0  0  0  0  0  0  0  0
    5.3150   -3.3600  -17.0930 C   0  0  0  0  0  1  0  0  0  0  0  0
    5.1490   -1.5820  -15.3870 C   0  0  0  0  0  1  0  0  0  0  0  0
  1  2  1  0  0  0  0
  1 26  1  0  0  0  0
  3  2  2  0  0  0  0
  4  8  1  0  0  0  0
  4  3  1  0  0  0  0
  5  4  2  0  0  0  0
  5  7  1  0  0  0  0
  6  5  1  0  0  0  0
  7  1  2  0  0  0  0
  8  9  2  0  0  0  0
 10  9  1  0  0  0  0
 10 11  1  0  0  0  0
 12 11  2  0  0  0  0
 12 23  1  0  0  0  0
 13 12  1  0  0  0  0
 14 13  2  0  0  0  0
 14 15  1  0  0  0  0
 15 10  2  0  0  0  0
 16 15  1  0  0  0  0
 16  8  1  0  0  0  0
 17 16  1  0  0  0  0
 17 22  1  0  0  0  0
 17 18  1  0  0  0  0
 19 18  1  0  0  0  0
 19 20  1  0  0  0  0
 21 22  1  0  0  0  0
 21 20  1  0  0  0  0
 23 24  1  0  0  0  0
 25 23  2  0  0  0  0
 27 26  1  6  0  0  0
 27 39  1  0  0  0  0
 27 31  1  0  0  0  0
 28 33  1  0  0  0  0
 28 37  1  0  0  0  0
 29 28  2  0  0  0  0
 30 31  2  0  0  0  0
 30 29  1  0  0  0  0
 31 32  1  0  0  0  0
 32 33  2  0  0  0  0
 35 34  1  0  0  0  0
 36 35  1  0  0  0  0
 37 35  1  0  0  0  0
 37 38  2  0  0  0  0
 39 40  1  0  0  0  0
 40 41  2  0  0  0  0
 42 45  1  0  0  0  0
 42 41  1  0  0  0  0
 43 42  2  0  0  0  0
 44 43  1  0  0  0  0
 44 39  2  0  0  0  0
 45 46  2  0  0  0  0
 47 49  1  0  0  0  0
 47 45  1  0  0  0  0
 48 47  1  0  0  0  0
M  END
>  <minimizedAffinity>
1.41483116

$$$$
