
 OpenBabel09122222393D

 21 22  0  0  0  0  0  0  0  0999 V2000
    8.8910   -3.1070    1.3470 C   0  0  0  0  0  0  0  0  0  0  0  0
    9.1070   -1.7590    1.3280 N   0  0  0  0  0  0  0  0  0  0  0  0
    9.8730   -1.2470    0.3440 C   0  0  0  0  0  0  0  0  0  0  0  0
   10.4500   -1.9680   -0.6370 N   0  0  0  0  0  0  0  0  0  0  0  0
   10.2140   -3.2830   -0.5820 C   0  0  0  0  0  0  0  0  0  0  0  0
    9.4490   -3.9170    0.3740 C   0  0  0  0  0  0  0  0  0  0  0  0
   10.0940    0.2150    0.3410 C   0  0  0  0  0  0  0  0  0  0  0  0
    9.4560    1.0570    1.2730 C   0  0  0  0  0  3  0  0  0  0  0  0
    9.6630    2.4410    1.2730 C   0  0  0  0  0  3  0  0  0  0  0  0
   10.5180    3.0160    0.3370 C   0  0  0  0  0  3  0  0  0  0  0  0
   11.1560    2.2050   -0.5900 C   0  0  0  0  0  0  0  0  0  0  0  0
   10.9540    0.8240   -0.5950 C   0  0  0  0  0  3  0  0  0  0  0  0
   11.9860    2.7980   -1.4970 O   0  0  0  0  0  0  0  0  0  0  0  0
   12.3460    2.1000   -2.0680 H   0  0  0  0  0  0  0  0  0  0  0  0
    8.1950   -3.2750    3.6120 O   0  0  0  0  0  1  0  0  0  0  0  0
    8.0310   -3.7520    2.4330 C   0  0  0  0  0  0  0  0  0  0  0  0
    7.2340   -4.6880    2.1180 O   0  0  0  0  0  0  0  0  0  0  0  0
   10.7940   -4.0390   -1.5720 O   0  0  0  0  0  0  0  0  0  0  0  0
   10.5010   -4.9430   -1.3450 H   0  0  0  0  0  0  0  0  0  0  0  0
    9.2960   -5.2770    0.2990 O   0  0  0  0  0  0  0  0  0  0  0  0
    8.7140   -5.5130    1.0790 H   0  0  0  0  0  0  0  0  0  0  0  0
  1 16  1  0  0  0  0
  2  1  1  0  0  0  0
  3  2  2  0  0  0  0
  4  5  2  0  0  0  0
  4  3  1  0  0  0  0
  5  6  1  0  0  0  0
  6  1  2  0  0  0  0
  7  3  1  0  0  0  0
  7  8  1  0  0  0  0
  9  8  2  0  0  0  0
 10  9  1  0  0  0  0
 11 10  2  0  0  0  0
 12 11  1  0  0  0  0
 12  7  2  0  0  0  0
 13 11  1  0  0  0  0
 14 13  1  0  0  0  0
 16 15  1  0  0  0  0
 17 16  2  0  0  0  0
 18 19  1  0  0  0  0
 18  5  1  0  0  0  0
 20  6  1  0  0  0  0
 20 21  1  0  0  0  0
M  END
>  <minimizedAffinity>
-6.57789087

$$$$
