
 OpenBabel09122222393D

 21 22  0  0  0  0  0  0  0  0999 V2000
   11.1290   -1.2810   -1.4490 C   0  0  0  0  0  0  0  0  0  0  0  0
   10.1630   -1.8040   -0.6370 N   0  0  0  0  0  0  0  0  0  0  0  0
   10.2090   -3.1210   -0.3530 C   0  0  0  0  0  0  0  0  0  0  0  0
   11.1430   -3.9760   -0.8130 N   0  0  0  0  0  0  0  0  0  0  0  0
   12.0690   -3.4250   -1.6050 C   0  0  0  0  0  0  0  0  0  0  0  0
   12.1240   -2.0950   -1.9620 C   0  0  0  0  0  0  0  0  0  0  0  0
    9.1560   -3.6680    0.5290 C   0  0  0  0  0  0  0  0  0  0  0  0
    8.8030   -3.0300    1.7360 C   0  0  0  0  0  3  0  0  0  0  0  0
    7.8070   -3.5440    2.5730 C   0  0  0  0  0  3  0  0  0  0  0  0
    7.1370   -4.7120    2.2200 C   0  0  0  0  0  3  0  0  0  0  0  0
    7.4680   -5.3550    1.0360 C   0  0  0  0  0  0  0  0  0  0  0  0
    8.4610   -4.8480    0.1970 C   0  0  0  0  0  3  0  0  0  0  0  0
    6.7950   -6.4990    0.7190 O   0  0  0  0  0  0  0  0  0  0  0  0
    7.1440   -6.8220   -0.1290 H   0  0  0  0  0  0  0  0  0  0  0  0
   10.7690    0.9940   -0.8670 O   0  0  0  0  0  1  0  0  0  0  0  0
   11.1360    0.2030   -1.8080 C   0  0  0  0  0  0  0  0  0  0  0  0
   11.4920    0.5570   -2.9740 O   0  0  0  0  0  0  0  0  0  0  0  0
   13.0330   -4.2780   -2.0870 O   0  0  0  0  0  0  0  0  0  0  0  0
   13.5890   -3.6840   -2.6270 H   0  0  0  0  0  0  0  0  0  0  0  0
   13.1370   -1.6740   -2.7840 O   0  0  0  0  0  0  0  0  0  0  0  0
   12.9790   -0.6920   -2.9050 H   0  0  0  0  0  0  0  0  0  0  0  0
  1  2  1  0  0  0  0
  2  3  2  0  0  0  0
  3  7  1  0  0  0  0
  4  3  1  0  0  0  0
  5  4  2  0  0  0  0
  6  5  1  0  0  0  0
  6  1  2  0  0  0  0
  7  8  1  0  0  0  0
  8  9  2  0  0  0  0
 10  9  1  0  0  0  0
 11 10  2  0  0  0  0
 12  7  2  0  0  0  0
 12 11  1  0  0  0  0
 13 11  1  0  0  0  0
 14 13  1  0  0  0  0
 16  1  1  0  0  0  0
 16 15  1  0  0  0  0
 17 16  2  0  0  0  0
 18  5  1  0  0  0  0
 19 18  1  0  0  0  0
 20  6  1  0  0  0  0
 21 20  1  0  0  0  0
M  END
>  <minimizedAffinity>
-6.83883095

$$$$
