
 OpenBabel09122222393D

 21 22  0  0  0  0  0  0  0  0999 V2000
    5.4170   -6.4250    0.7490 C   0  0  0  0  0  0  0  0  0  0  0  0
    6.5230   -5.6740    0.4710 N   0  0  0  0  0  0  0  0  0  0  0  0
    7.0600   -4.9340    1.4620 C   0  0  0  0  0  0  0  0  0  0  0  0
    6.5870   -4.8740    2.7220 N   0  0  0  0  0  0  0  0  0  0  0  0
    5.5030   -5.6220    2.9510 C   0  0  0  0  0  0  0  0  0  0  0  0
    4.8700   -6.4170    2.0200 C   0  0  0  0  0  0  0  0  0  0  0  0
    8.2580   -4.1300    1.1410 C   0  0  0  0  0  0  0  0  0  0  0  0
    8.7170   -3.1160    2.0080 C   0  0  0  0  0  3  0  0  0  0  0  0
    9.8500   -2.3520    1.7080 C   0  0  0  0  0  3  0  0  0  0  0  0
   10.5550   -2.5860    0.5310 C   0  0  0  0  0  3  0  0  0  0  0  0
   10.1210   -3.5790   -0.3360 C   0  0  0  0  0  0  0  0  0  0  0  0
    8.9910   -4.3440   -0.0430 C   0  0  0  0  0  3  0  0  0  0  0  0
   10.8310   -3.7830   -1.4830 O   0  0  0  0  0  0  0  0  0  0  0  0
   10.3980   -4.5020   -1.9740 H   0  0  0  0  0  0  0  0  0  0  0  0
    5.5600   -7.7610   -1.2100 O   0  0  0  0  0  0  0  0  0  0  0  0
    4.7600   -7.2870   -0.3270 C   0  0  0  0  0  0  0  0  0  0  0  0
    3.5050   -7.4780   -0.2880 O   0  0  0  0  0  1  0  0  0  0  0  0
    5.0010   -5.5760    4.2300 O   0  0  0  0  0  0  0  0  0  0  0  0
    4.2330   -6.1770    4.1770 H   0  0  0  0  0  0  0  0  0  0  0  0
    3.7640   -7.1300    2.4050 O   0  0  0  0  0  0  0  0  0  0  0  0
    3.4790   -7.6250    1.5820 H   0  0  0  0  0  0  0  0  0  0  0  0
  1  6  2  0  0  0  0
  2  1  1  0  0  0  0
  2  3  2  0  0  0  0
  3  4  1  0  0  0  0
  4  5  2  0  0  0  0
  5 18  1  0  0  0  0
  6 20  1  0  0  0  0
  6  5  1  0  0  0  0
  7  3  1  0  0  0  0
  7  8  1  0  0  0  0
  9  8  2  0  0  0  0
 10  9  1  0  0  0  0
 11 12  1  0  0  0  0
 11 10  2  0  0  0  0
 12  7  2  0  0  0  0
 13 11  1  0  0  0  0
 14 13  1  0  0  0  0
 15 16  2  0  0  0  0
 16 17  1  0  0  0  0
 16  1  1  0  0  0  0
 19 18  1  0  0  0  0
 21 20  1  0  0  0  0
M  END
>  <minimizedAffinity>
-6.91890478

$$$$
