
 OpenBabel09122218253D

 21 22  0  0  0  0  0  0  0  0999 V2000
    8.3520   -4.3980    0.8760 C   0  0  0  0  0  0  0  0  0  0  0  0
    9.2550   -4.0000   -0.0690 N   0  0  0  0  0  0  0  0  0  0  0  0
    9.9460   -2.8640    0.1450 C   0  0  0  0  0  0  0  0  0  0  0  0
    9.8180   -2.0770    1.2310 N   0  0  0  0  0  0  0  0  0  0  0  0
    8.9240   -2.5010    2.1300 C   0  0  0  0  0  0  0  0  0  0  0  0
    8.1620   -3.6440    2.0200 C   0  0  0  0  0  0  0  0  0  0  0  0
   10.9190   -2.4510   -0.8880 C   0  0  0  0  0  0  0  0  0  0  0  0
   11.9960   -3.2820   -1.2580 C   0  0  0  0  0  3  0  0  0  0  0  0
   12.9190   -2.8940   -2.2360 C   0  0  0  0  0  3  0  0  0  0  0  0
   12.7850   -1.6620   -2.8690 C   0  0  0  0  0  3  0  0  0  0  0  0
   11.7330   -0.8290   -2.5190 C   0  0  0  0  0  0  0  0  0  0  0  0
   10.8090   -1.2090   -1.5450 C   0  0  0  0  0  3  0  0  0  0  0  0
   11.6300    0.3740   -3.1560 O   0  0  0  0  0  0  0  0  0  0  0  0
   10.8510    0.8320   -2.7980 H   0  0  0  0  0  0  0  0  0  0  0  0
    6.8290   -5.7270   -0.3730 O   0  0  0  0  0  0  0  0  0  0  0  0
    7.5360   -5.6770    0.6960 C   0  0  0  0  0  0  0  0  0  0  0  0
    7.6020   -6.5840    1.5810 O   0  0  0  0  0  1  0  0  0  0  0  0
    8.7740   -1.7130    3.2470 O   0  0  0  0  0  0  0  0  0  0  0  0
    8.0920   -2.1940    3.7540 H   0  0  0  0  0  0  0  0  0  0  0  0
    7.2840   -3.9510    3.0270 O   0  0  0  0  0  0  0  0  0  0  0  0
    6.8490   -4.8060    2.7370 H   0  0  0  0  0  0  0  0  0  0  0  0
  1  6  2  0  0  0  0
  2  3  2  0  0  0  0
  2  1  1  0  0  0  0
  3  4  1  0  0  0  0
  4  5  2  0  0  0  0
  5 18  1  0  0  0  0
  6  5  1  0  0  0  0
  6 20  1  0  0  0  0
  7  3  1  0  0  0  0
  8  7  1  0  0  0  0
  9  8  2  0  0  0  0
 10 11  2  0  0  0  0
 10  9  1  0  0  0  0
 11 12  1  0  0  0  0
 12  7  2  0  0  0  0
 13 14  1  0  0  0  0
 13 11  1  0  0  0  0
 15 16  2  0  0  0  0
 16  1  1  0  0  0  0
 16 17  1  0  0  0  0
 18 19  1  0  0  0  0
 21 20  1  0  0  0  0
M  END
>  <minimizedAffinity>
-7.44857073

$$$$

 OpenBabel09122218253D

 21 22  0  0  0  0  0  0  0  0999 V2000
    9.0990   -3.0380    1.8930 C   0  0  0  0  0  0  0  0  0  0  0  0
   10.0290   -2.5600    1.0140 N   0  0  0  0  0  0  0  0  0  0  0  0
   10.0980   -3.1170   -0.2110 C   0  0  0  0  0  0  0  0  0  0  0  0
    9.3140   -4.1210   -0.6460 N   0  0  0  0  0  0  0  0  0  0  0  0
    8.4180   -4.5610    0.2440 C   0  0  0  0  0  0  0  0  0  0  0  0
    8.2550   -4.0700    1.5210 C   0  0  0  0  0  0  0  0  0  0  0  0
   11.1110   -2.5840   -1.1470 C   0  0  0  0  0  0  0  0  0  0  0  0
   12.1750   -3.3830   -1.6120 C   0  0  0  0  0  3  0  0  0  0  0  0
   13.1360   -2.8830   -2.4980 C   0  0  0  0  0  3  0  0  0  0  0  0
   13.0520   -1.5670   -2.9430 C   0  0  0  0  0  3  0  0  0  0  0  0
   12.0130   -0.7630   -2.4980 C   0  0  0  0  0  0  0  0  0  0  0  0
   11.0520   -1.2560   -1.6140 C   0  0  0  0  0  3  0  0  0  0  0  0
   11.9590    0.5240   -2.9500 O   0  0  0  0  0  0  0  0  0  0  0  0
   11.1830    0.9460   -2.5460 H   0  0  0  0  0  0  0  0  0  0  0  0
    8.7750   -3.3080    4.2310 O   0  0  0  0  0  1  0  0  0  0  0  0
    8.9650   -2.4500    3.2960 C   0  0  0  0  0  0  0  0  0  0  0  0
    9.0480   -1.1930    3.4520 O   0  0  0  0  0  0  0  0  0  0  0  0
    7.6060   -5.5880   -0.1770 O   0  0  0  0  0  0  0  0  0  0  0  0
    7.0460   -5.7480    0.6070 H   0  0  0  0  0  0  0  0  0  0  0  0
    7.2900   -4.6230    2.3220 O   0  0  0  0  0  0  0  0  0  0  0  0
    7.3510   -4.1180    3.1850 H   0  0  0  0  0  0  0  0  0  0  0  0
  1 16  1  0  0  0  0
  2  1  1  0  0  0  0
  3  2  2  0  0  0  0
  4  3  1  0  0  0  0
  4  5  2  0  0  0  0
  5  6  1  0  0  0  0
  6  1  2  0  0  0  0
  6 20  1  0  0  0  0
  7  3  1  0  0  0  0
  8  7  1  0  0  0  0
  9  8  2  0  0  0  0
 10  9  1  0  0  0  0
 10 11  2  0  0  0  0
 11 12  1  0  0  0  0
 12  7  2  0  0  0  0
 13 14  1  0  0  0  0
 13 11  1  0  0  0  0
 16 17  2  0  0  0  0
 16 15  1  0  0  0  0
 18  5  1  0  0  0  0
 18 19  1  0  0  0  0
 20 21  1  0  0  0  0
M  END
>  <minimizedAffinity>
-7.40720463

$$$$

 OpenBabel09122218253D

 21 22  0  0  0  0  0  0  0  0999 V2000
   11.0690   -1.1890   -1.4580 C   0  0  0  0  0  0  0  0  0  0  0  0
   10.1040   -1.7900   -0.7010 N   0  0  0  0  0  0  0  0  0  0  0  0
   10.2050   -3.1130   -0.4680 C   0  0  0  0  0  0  0  0  0  0  0  0
   11.1950   -3.9030   -0.9280 N   0  0  0  0  0  0  0  0  0  0  0  0
   12.1170   -3.2760   -1.6660 C   0  0  0  0  0  0  0  0  0  0  0  0
   12.1180   -1.9320   -1.9690 C   0  0  0  0  0  0  0  0  0  0  0  0
    9.1520   -3.7450    0.3550 C   0  0  0  0  0  0  0  0  0  0  0  0
    8.4480   -4.8800   -0.0970 C   0  0  0  0  0  3  0  0  0  0  0  0
    7.4500   -5.4810    0.6790 C   0  0  0  0  0  3  0  0  0  0  0  0
    7.1350   -4.9590    1.9300 C   0  0  0  0  0  3  0  0  0  0  0  0
    7.8160   -3.8430    2.3940 C   0  0  0  0  0  0  0  0  0  0  0  0
    8.8120   -3.2390    1.6250 C   0  0  0  0  0  3  0  0  0  0  0  0
    7.4820   -3.3540    3.6240 O   0  0  0  0  0  0  0  0  0  0  0  0
    8.0430   -2.5790    3.7950 H   0  0  0  0  0  0  0  0  0  0  0  0
   10.5800    1.0410   -0.8000 O   0  0  0  0  0  1  0  0  0  0  0  0
   11.0150    0.3080   -1.7580 C   0  0  0  0  0  0  0  0  0  0  0  0
   11.3900    0.7260   -2.8970 O   0  0  0  0  0  0  0  0  0  0  0  0
   13.1370   -4.0620   -2.1490 O   0  0  0  0  0  0  0  0  0  0  0  0
   13.6800   -3.4200   -2.6460 H   0  0  0  0  0  0  0  0  0  0  0  0
   13.1360   -1.4300   -2.7380 O   0  0  0  0  0  0  0  0  0  0  0  0
   12.9330   -0.4530   -2.8260 H   0  0  0  0  0  0  0  0  0  0  0  0
  1  2  1  0  0  0  0
  2  3  2  0  0  0  0
  3  7  1  0  0  0  0
  4  3  1  0  0  0  0
  5  4  2  0  0  0  0
  6  5  1  0  0  0  0
  6  1  2  0  0  0  0
  7 12  1  0  0  0  0
  8  7  2  0  0  0  0
  8  9  1  0  0  0  0
  9 10  2  0  0  0  0
 10 11  1  0  0  0  0
 11 13  1  0  0  0  0
 12 11  2  0  0  0  0
 13 14  1  0  0  0  0
 16  1  1  0  0  0  0
 16 15  1  0  0  0  0
 17 16  2  0  0  0  0
 18  5  1  0  0  0  0
 19 18  1  0  0  0  0
 20  6  1  0  0  0  0
 21 20  1  0  0  0  0
M  END
>  <minimizedAffinity>
-7.12924814

$$$$

 OpenBabel09122218253D

 21 22  0  0  0  0  0  0  0  0999 V2000
    5.4170   -6.4250    0.7490 C   0  0  0  0  0  0  0  0  0  0  0  0
    6.5230   -5.6740    0.4710 N   0  0  0  0  0  0  0  0  0  0  0  0
    7.0600   -4.9340    1.4620 C   0  0  0  0  0  0  0  0  0  0  0  0
    6.5870   -4.8740    2.7220 N   0  0  0  0  0  0  0  0  0  0  0  0
    5.5030   -5.6220    2.9510 C   0  0  0  0  0  0  0  0  0  0  0  0
    4.8700   -6.4170    2.0200 C   0  0  0  0  0  0  0  0  0  0  0  0
    8.2580   -4.1300    1.1410 C   0  0  0  0  0  0  0  0  0  0  0  0
    8.7170   -3.1160    2.0080 C   0  0  0  0  0  3  0  0  0  0  0  0
    9.8500   -2.3520    1.7080 C   0  0  0  0  0  3  0  0  0  0  0  0
   10.5550   -2.5860    0.5310 C   0  0  0  0  0  3  0  0  0  0  0  0
   10.1210   -3.5790   -0.3360 C   0  0  0  0  0  0  0  0  0  0  0  0
    8.9910   -4.3440   -0.0430 C   0  0  0  0  0  3  0  0  0  0  0  0
   10.8310   -3.7830   -1.4830 O   0  0  0  0  0  0  0  0  0  0  0  0
   10.3980   -4.5020   -1.9740 H   0  0  0  0  0  0  0  0  0  0  0  0
    5.5600   -7.7610   -1.2100 O   0  0  0  0  0  0  0  0  0  0  0  0
    4.7600   -7.2870   -0.3270 C   0  0  0  0  0  0  0  0  0  0  0  0
    3.5050   -7.4780   -0.2880 O   0  0  0  0  0  1  0  0  0  0  0  0
    5.0010   -5.5760    4.2300 O   0  0  0  0  0  0  0  0  0  0  0  0
    4.2330   -6.1770    4.1770 H   0  0  0  0  0  0  0  0  0  0  0  0
    3.7640   -7.1300    2.4050 O   0  0  0  0  0  0  0  0  0  0  0  0
    3.4790   -7.6250    1.5820 H   0  0  0  0  0  0  0  0  0  0  0  0
  1  6  2  0  0  0  0
  2  1  1  0  0  0  0
  2  3  2  0  0  0  0
  3  4  1  0  0  0  0
  4  5  2  0  0  0  0
  5 18  1  0  0  0  0
  6 20  1  0  0  0  0
  6  5  1  0  0  0  0
  7  3  1  0  0  0  0
  7  8  1  0  0  0  0
  9  8  2  0  0  0  0
 10  9  1  0  0  0  0
 11 12  1  0  0  0  0
 11 10  2  0  0  0  0
 12  7  2  0  0  0  0
 13 11  1  0  0  0  0
 14 13  1  0  0  0  0
 15 16  2  0  0  0  0
 16 17  1  0  0  0  0
 16  1  1  0  0  0  0
 19 18  1  0  0  0  0
 21 20  1  0  0  0  0
M  END
>  <minimizedAffinity>
-6.91890478

$$$$

 OpenBabel09122218253D

 21 22  0  0  0  0  0  0  0  0999 V2000
    9.2530   -2.9620    1.7190 C   0  0  0  0  0  0  0  0  0  0  0  0
    9.8640   -1.9170    1.0870 N   0  0  0  0  0  0  0  0  0  0  0  0
   10.0150   -1.9790   -0.2510 C   0  0  0  0  0  0  0  0  0  0  0  0
    9.6070   -3.0020   -1.0260 N   0  0  0  0  0  0  0  0  0  0  0  0
    9.0160   -4.0040   -0.3680 C   0  0  0  0  0  0  0  0  0  0  0  0
    8.8060   -4.0520    0.9930 C   0  0  0  0  0  0  0  0  0  0  0  0
   10.6770   -0.8370   -0.9170 C   0  0  0  0  0  0  0  0  0  0  0  0
   11.5080   -1.0230   -2.0410 C   0  0  0  0  0  3  0  0  0  0  0  0
   12.1370    0.0550   -2.6750 C   0  0  0  0  0  3  0  0  0  0  0  0
   11.9470    1.3490   -2.1970 C   0  0  0  0  0  3  0  0  0  0  0  0
   11.1340    1.5540   -1.0920 C   0  0  0  0  0  0  0  0  0  0  0  0
   10.5040    0.4830   -0.4560 C   0  0  0  0  0  3  0  0  0  0  0  0
   10.9690    2.8330   -0.6460 O   0  0  0  0  0  0  0  0  0  0  0  0
   10.3800    2.8030    0.1270 H   0  0  0  0  0  0  0  0  0  0  0  0
   10.0510   -2.5380    3.9170 O   0  0  0  0  0  1  0  0  0  0  0  0
    9.0490   -2.9550    3.2330 C   0  0  0  0  0  0  0  0  0  0  0  0
    7.9410   -3.3490    3.7110 O   0  0  0  0  0  0  0  0  0  0  0  0
    8.5920   -5.0610   -1.1390 O   0  0  0  0  0  0  0  0  0  0  0  0
    8.2020   -5.6620   -0.4750 H   0  0  0  0  0  0  0  0  0  0  0  0
    8.1830   -5.1500    1.5260 O   0  0  0  0  0  0  0  0  0  0  0  0
    8.1390   -4.9680    2.5100 H   0  0  0  0  0  0  0  0  0  0  0  0
  1 16  1  0  0  0  0
  2  1  1  0  0  0  0
  3  2  2  0  0  0  0
  4  5  2  0  0  0  0
  4  3  1  0  0  0  0
  5  6  1  0  0  0  0
  6 20  1  0  0  0  0
  6  1  2  0  0  0  0
  7 12  1  0  0  0  0
  7  3  1  0  0  0  0
  8  7  2  0  0  0  0
  9 10  2  0  0  0  0
  9  8  1  0  0  0  0
 10 11  1  0  0  0  0
 11 13  1  0  0  0  0
 11 12  2  0  0  0  0
 13 14  1  0  0  0  0
 16 17  2  0  0  0  0
 16 15  1  0  0  0  0
 18 19  1  0  0  0  0
 18  5  1  0  0  0  0
 20 21  1  0  0  0  0
M  END
>  <minimizedAffinity>
-6.90574598

$$$$

 OpenBabel09122218253D

 21 22  0  0  0  0  0  0  0  0999 V2000
   11.1290   -1.2810   -1.4490 C   0  0  0  0  0  0  0  0  0  0  0  0
   10.1630   -1.8040   -0.6370 N   0  0  0  0  0  0  0  0  0  0  0  0
   10.2090   -3.1210   -0.3530 C   0  0  0  0  0  0  0  0  0  0  0  0
   11.1430   -3.9760   -0.8130 N   0  0  0  0  0  0  0  0  0  0  0  0
   12.0690   -3.4250   -1.6050 C   0  0  0  0  0  0  0  0  0  0  0  0
   12.1240   -2.0950   -1.9620 C   0  0  0  0  0  0  0  0  0  0  0  0
    9.1560   -3.6680    0.5290 C   0  0  0  0  0  0  0  0  0  0  0  0
    8.8030   -3.0300    1.7360 C   0  0  0  0  0  3  0  0  0  0  0  0
    7.8070   -3.5440    2.5730 C   0  0  0  0  0  3  0  0  0  0  0  0
    7.1370   -4.7120    2.2200 C   0  0  0  0  0  3  0  0  0  0  0  0
    7.4680   -5.3550    1.0360 C   0  0  0  0  0  0  0  0  0  0  0  0
    8.4610   -4.8480    0.1970 C   0  0  0  0  0  3  0  0  0  0  0  0
    6.7950   -6.4990    0.7190 O   0  0  0  0  0  0  0  0  0  0  0  0
    7.1440   -6.8220   -0.1290 H   0  0  0  0  0  0  0  0  0  0  0  0
   10.7690    0.9940   -0.8670 O   0  0  0  0  0  1  0  0  0  0  0  0
   11.1360    0.2030   -1.8080 C   0  0  0  0  0  0  0  0  0  0  0  0
   11.4920    0.5570   -2.9740 O   0  0  0  0  0  0  0  0  0  0  0  0
   13.0330   -4.2780   -2.0870 O   0  0  0  0  0  0  0  0  0  0  0  0
   13.5890   -3.6840   -2.6270 H   0  0  0  0  0  0  0  0  0  0  0  0
   13.1370   -1.6740   -2.7840 O   0  0  0  0  0  0  0  0  0  0  0  0
   12.9790   -0.6920   -2.9050 H   0  0  0  0  0  0  0  0  0  0  0  0
  1  2  1  0  0  0  0
  2  3  2  0  0  0  0
  3  7  1  0  0  0  0
  4  3  1  0  0  0  0
  5  4  2  0  0  0  0
  6  5  1  0  0  0  0
  6  1  2  0  0  0  0
  7  8  1  0  0  0  0
  8  9  2  0  0  0  0
 10  9  1  0  0  0  0
 11 10  2  0  0  0  0
 12  7  2  0  0  0  0
 12 11  1  0  0  0  0
 13 11  1  0  0  0  0
 14 13  1  0  0  0  0
 16  1  1  0  0  0  0
 16 15  1  0  0  0  0
 17 16  2  0  0  0  0
 18  5  1  0  0  0  0
 19 18  1  0  0  0  0
 20  6  1  0  0  0  0
 21 20  1  0  0  0  0
M  END
>  <minimizedAffinity>
-6.83883095

$$$$

 OpenBabel09122218253D

 21 22  0  0  0  0  0  0  0  0999 V2000
   11.1350    1.2850   -1.0070 C   0  0  0  0  0  0  0  0  0  0  0  0
   10.4960    0.3730   -0.2160 N   0  0  0  0  0  0  0  0  0  0  0  0
   10.4230   -0.9040   -0.6400 C   0  0  0  0  0  0  0  0  0  0  0  0
   10.9370   -1.3610   -1.7980 N   0  0  0  0  0  0  0  0  0  0  0  0
   11.5530   -0.4380   -2.5430 C   0  0  0  0  0  0  0  0  0  0  0  0
   11.6900    0.8930   -2.2130 C   0  0  0  0  0  0  0  0  0  0  0  0
    9.7280   -1.8750    0.2310 C   0  0  0  0  0  0  0  0  0  0  0  0
    9.1610   -1.4850    1.4620 C   0  0  0  0  0  3  0  0  0  0  0  0
    8.5030   -2.4010    2.2890 C   0  0  0  0  0  3  0  0  0  0  0  0
    8.3940   -3.7340    1.9030 C   0  0  0  0  0  3  0  0  0  0  0  0
    8.9450   -4.1390    0.6960 C   0  0  0  0  0  0  0  0  0  0  0  0
    9.6030   -3.2300   -0.1340 C   0  0  0  0  0  3  0  0  0  0  0  0
    8.8250   -5.4530    0.3450 O   0  0  0  0  0  0  0  0  0  0  0  0
    9.2610   -5.5700   -0.5150 H   0  0  0  0  0  0  0  0  0  0  0  0
   12.4180    3.2660   -0.7370 O   0  0  0  0  0  0  0  0  0  0  0  0
   11.2550    2.7480   -0.5840 C   0  0  0  0  0  0  0  0  0  0  0  0
   10.2340    3.3450   -0.1230 O   0  0  0  0  0  1  0  0  0  0  0  0
   12.0850   -0.8810   -3.7310 O   0  0  0  0  0  0  0  0  0  0  0  0
   12.4750   -0.0660   -4.1040 H   0  0  0  0  0  0  0  0  0  0  0  0
   12.3510    1.7230   -3.0800 O   0  0  0  0  0  0  0  0  0  0  0  0
   12.3290    2.6240   -2.6410 H   0  0  0  0  0  0  0  0  0  0  0  0
  1 16  1  0  0  0  0
  1  2  1  0  0  0  0
  3  2  2  0  0  0  0
  3  7  1  0  0  0  0
  4  3  1  0  0  0  0
  5  6  1  0  0  0  0
  5  4  2  0  0  0  0
  6  1  2  0  0  0  0
  7  8  1  0  0  0  0
  8  9  2  0  0  0  0
 10  9  1  0  0  0  0
 11 10  2  0  0  0  0
 12  7  2  0  0  0  0
 12 11  1  0  0  0  0
 13 11  1  0  0  0  0
 14 13  1  0  0  0  0
 15 16  2  0  0  0  0
 16 17  1  0  0  0  0
 18  5  1  0  0  0  0
 19 18  1  0  0  0  0
 20 21  1  0  0  0  0
 20  6  1  0  0  0  0
M  END
>  <minimizedAffinity>
-6.65994215

$$$$

 OpenBabel09122218253D

 21 22  0  0  0  0  0  0  0  0999 V2000
    8.9850   -3.5580    0.2940 C   0  0  0  0  0  0  0  0  0  0  0  0
    9.6180   -2.6350   -0.4890 N   0  0  0  0  0  0  0  0  0  0  0  0
    9.9480   -1.4490    0.0590 C   0  0  0  0  0  0  0  0  0  0  0  0
    9.7020   -1.0950    1.3360 N   0  0  0  0  0  0  0  0  0  0  0  0
    9.0810   -2.0260    2.0670 C   0  0  0  0  0  0  0  0  0  0  0  0
    8.6960   -3.2700    1.6160 C   0  0  0  0  0  0  0  0  0  0  0  0
   10.6330   -0.4630   -0.8040 C   0  0  0  0  0  0  0  0  0  0  0  0
   11.1290   -0.8190   -2.0750 C   0  0  0  0  0  3  0  0  0  0  0  0
   11.7780    0.1110   -2.8950 C   0  0  0  0  0  3  0  0  0  0  0  0
   11.9450    1.4230   -2.4610 C   0  0  0  0  0  3  0  0  0  0  0  0
   11.4650    1.7930   -1.2130 C   0  0  0  0  0  0  0  0  0  0  0  0
   10.8170    0.8710   -0.3910 C   0  0  0  0  0  3  0  0  0  0  0  0
   11.6470    3.0860   -0.8150 O   0  0  0  0  0  0  0  0  0  0  0  0
   11.2610    3.1790    0.0720 H   0  0  0  0  0  0  0  0  0  0  0  0
    8.7160   -5.9050    0.5500 O   0  0  0  0  0  1  0  0  0  0  0  0
    8.5850   -4.9220   -0.2650 C   0  0  0  0  0  0  0  0  0  0  0  0
    8.1620   -5.0040   -1.4590 O   0  0  0  0  0  0  0  0  0  0  0  0
    8.8170   -1.6870    3.3730 O   0  0  0  0  0  0  0  0  0  0  0  0
    8.3720   -2.4880    3.7130 H   0  0  0  0  0  0  0  0  0  0  0  0
    8.0670   -4.1220    2.4870 O   0  0  0  0  0  0  0  0  0  0  0  0
    7.8860   -4.9490    1.9510 H   0  0  0  0  0  0  0  0  0  0  0  0
  1  6  2  0  0  0  0
  2  3  2  0  0  0  0
  2  1  1  0  0  0  0
  3  4  1  0  0  0  0
  4  5  2  0  0  0  0
  5 18  1  0  0  0  0
  6  5  1  0  0  0  0
  6 20  1  0  0  0  0
  7 12  1  0  0  0  0
  7  3  1  0  0  0  0
  8  7  2  0  0  0  0
  9 10  2  0  0  0  0
  9  8  1  0  0  0  0
 10 11  1  0  0  0  0
 11 13  1  0  0  0  0
 11 12  2  0  0  0  0
 13 14  1  0  0  0  0
 16  1  1  0  0  0  0
 16 15  1  0  0  0  0
 17 16  2  0  0  0  0
 18 19  1  0  0  0  0
 21 20  1  0  0  0  0
M  END
>  <minimizedAffinity>
-6.63497591

$$$$

 OpenBabel09122218253D

 21 22  0  0  0  0  0  0  0  0999 V2000
    7.3450   -5.3300    0.7340 C   0  0  0  0  0  0  0  0  0  0  0  0
    8.3370   -4.7300    0.0110 N   0  0  0  0  0  0  0  0  0  0  0  0
    8.9900   -3.6880    0.5620 C   0  0  0  0  0  0  0  0  0  0  0  0
    8.7410   -3.1820    1.7850 N   0  0  0  0  0  0  0  0  0  0  0  0
    7.7630   -3.7960    2.4590 C   0  0  0  0  0  0  0  0  0  0  0  0
    7.0290   -4.8680    2.0000 C   0  0  0  0  0  0  0  0  0  0  0  0
   10.0610   -3.0540   -0.2370 C   0  0  0  0  0  0  0  0  0  0  0  0
   10.0750   -1.6640   -0.4760 C   0  0  0  0  0  3  0  0  0  0  0  0
   11.0860   -1.0600   -1.2310 C   0  0  0  0  0  3  0  0  0  0  0  0
   12.1120   -1.8350   -1.7650 C   0  0  0  0  0  3  0  0  0  0  0  0
   12.1170   -3.2040   -1.5410 C   0  0  0  0  0  0  0  0  0  0  0  0
   11.1120   -3.8130   -0.7890 C   0  0  0  0  0  3  0  0  0  0  0  0
   13.1350   -3.9370   -2.0800 O   0  0  0  0  0  0  0  0  0  0  0  0
   12.9900   -4.8660   -1.8360 H   0  0  0  0  0  0  0  0  0  0  0  0
    6.6120   -7.5850    0.8790 O   0  0  0  0  0  1  0  0  0  0  0  0
    6.5670   -6.5170    0.1700 C   0  0  0  0  0  0  0  0  0  0  0  0
    5.9440   -6.3840   -0.9280 O   0  0  0  0  0  0  0  0  0  0  0  0
    7.4900   -3.2960    3.7100 O   0  0  0  0  0  0  0  0  0  0  0  0
    6.7630   -3.8750    4.0140 H   0  0  0  0  0  0  0  0  0  0  0  0
    6.0550   -5.3950    2.8080 O   0  0  0  0  0  0  0  0  0  0  0  0
    5.6620   -6.1490    2.2780 H   0  0  0  0  0  0  0  0  0  0  0  0
  1  6  2  0  0  0  0
  2  3  2  0  0  0  0
  2  1  1  0  0  0  0
  3  4  1  0  0  0  0
  4  5  2  0  0  0  0
  5 18  1  0  0  0  0
  6  5  1  0  0  0  0
  6 20  1  0  0  0  0
  7  3  1  0  0  0  0
  8  7  1  0  0  0  0
  9  8  2  0  0  0  0
 10 11  2  0  0  0  0
 10  9  1  0  0  0  0
 11 12  1  0  0  0  0
 12  7  2  0  0  0  0
 13 14  1  0  0  0  0
 13 11  1  0  0  0  0
 16  1  1  0  0  0  0
 16 15  1  0  0  0  0
 17 16  2  0  0  0  0
 18 19  1  0  0  0  0
 21 20  1  0  0  0  0
M  END
>  <minimizedAffinity>
-6.57948065

$$$$

 OpenBabel09122218253D

 21 22  0  0  0  0  0  0  0  0999 V2000
    8.8910   -3.1070    1.3470 C   0  0  0  0  0  0  0  0  0  0  0  0
    9.1070   -1.7590    1.3280 N   0  0  0  0  0  0  0  0  0  0  0  0
    9.8730   -1.2470    0.3440 C   0  0  0  0  0  0  0  0  0  0  0  0
   10.4500   -1.9680   -0.6370 N   0  0  0  0  0  0  0  0  0  0  0  0
   10.2140   -3.2830   -0.5820 C   0  0  0  0  0  0  0  0  0  0  0  0
    9.4490   -3.9170    0.3740 C   0  0  0  0  0  0  0  0  0  0  0  0
   10.0940    0.2150    0.3410 C   0  0  0  0  0  0  0  0  0  0  0  0
    9.4560    1.0570    1.2730 C   0  0  0  0  0  3  0  0  0  0  0  0
    9.6630    2.4410    1.2730 C   0  0  0  0  0  3  0  0  0  0  0  0
   10.5180    3.0160    0.3370 C   0  0  0  0  0  3  0  0  0  0  0  0
   11.1560    2.2050   -0.5900 C   0  0  0  0  0  0  0  0  0  0  0  0
   10.9540    0.8240   -0.5950 C   0  0  0  0  0  3  0  0  0  0  0  0
   11.9860    2.7980   -1.4970 O   0  0  0  0  0  0  0  0  0  0  0  0
   12.3460    2.1000   -2.0680 H   0  0  0  0  0  0  0  0  0  0  0  0
    8.1950   -3.2750    3.6120 O   0  0  0  0  0  1  0  0  0  0  0  0
    8.0310   -3.7520    2.4330 C   0  0  0  0  0  0  0  0  0  0  0  0
    7.2340   -4.6880    2.1180 O   0  0  0  0  0  0  0  0  0  0  0  0
   10.7940   -4.0390   -1.5720 O   0  0  0  0  0  0  0  0  0  0  0  0
   10.5010   -4.9430   -1.3450 H   0  0  0  0  0  0  0  0  0  0  0  0
    9.2960   -5.2770    0.2990 O   0  0  0  0  0  0  0  0  0  0  0  0
    8.7140   -5.5130    1.0790 H   0  0  0  0  0  0  0  0  0  0  0  0
  1 16  1  0  0  0  0
  2  1  1  0  0  0  0
  3  2  2  0  0  0  0
  4  5  2  0  0  0  0
  4  3  1  0  0  0  0
  5  6  1  0  0  0  0
  6  1  2  0  0  0  0
  7  3  1  0  0  0  0
  7  8  1  0  0  0  0
  9  8  2  0  0  0  0
 10  9  1  0  0  0  0
 11 10  2  0  0  0  0
 12 11  1  0  0  0  0
 12  7  2  0  0  0  0
 13 11  1  0  0  0  0
 14 13  1  0  0  0  0
 16 15  1  0  0  0  0
 17 16  2  0  0  0  0
 18 19  1  0  0  0  0
 18  5  1  0  0  0  0
 20  6  1  0  0  0  0
 20 21  1  0  0  0  0
M  END
>  <minimizedAffinity>
-6.57789087

$$$$
