
 OpenBabel09122222393D

 21 22  0  0  0  0  0  0  0  0999 V2000
    7.3450   -5.3300    0.7340 C   0  0  0  0  0  0  0  0  0  0  0  0
    8.3370   -4.7300    0.0110 N   0  0  0  0  0  0  0  0  0  0  0  0
    8.9900   -3.6880    0.5620 C   0  0  0  0  0  0  0  0  0  0  0  0
    8.7410   -3.1820    1.7850 N   0  0  0  0  0  0  0  0  0  0  0  0
    7.7630   -3.7960    2.4590 C   0  0  0  0  0  0  0  0  0  0  0  0
    7.0290   -4.8680    2.0000 C   0  0  0  0  0  0  0  0  0  0  0  0
   10.0610   -3.0540   -0.2370 C   0  0  0  0  0  0  0  0  0  0  0  0
   10.0750   -1.6640   -0.4760 C   0  0  0  0  0  3  0  0  0  0  0  0
   11.0860   -1.0600   -1.2310 C   0  0  0  0  0  3  0  0  0  0  0  0
   12.1120   -1.8350   -1.7650 C   0  0  0  0  0  3  0  0  0  0  0  0
   12.1170   -3.2040   -1.5410 C   0  0  0  0  0  0  0  0  0  0  0  0
   11.1120   -3.8130   -0.7890 C   0  0  0  0  0  3  0  0  0  0  0  0
   13.1350   -3.9370   -2.0800 O   0  0  0  0  0  0  0  0  0  0  0  0
   12.9900   -4.8660   -1.8360 H   0  0  0  0  0  0  0  0  0  0  0  0
    6.6120   -7.5850    0.8790 O   0  0  0  0  0  1  0  0  0  0  0  0
    6.5670   -6.5170    0.1700 C   0  0  0  0  0  0  0  0  0  0  0  0
    5.9440   -6.3840   -0.9280 O   0  0  0  0  0  0  0  0  0  0  0  0
    7.4900   -3.2960    3.7100 O   0  0  0  0  0  0  0  0  0  0  0  0
    6.7630   -3.8750    4.0140 H   0  0  0  0  0  0  0  0  0  0  0  0
    6.0550   -5.3950    2.8080 O   0  0  0  0  0  0  0  0  0  0  0  0
    5.6620   -6.1490    2.2780 H   0  0  0  0  0  0  0  0  0  0  0  0
  1  6  2  0  0  0  0
  2  3  2  0  0  0  0
  2  1  1  0  0  0  0
  3  4  1  0  0  0  0
  4  5  2  0  0  0  0
  5 18  1  0  0  0  0
  6  5  1  0  0  0  0
  6 20  1  0  0  0  0
  7  3  1  0  0  0  0
  8  7  1  0  0  0  0
  9  8  2  0  0  0  0
 10 11  2  0  0  0  0
 10  9  1  0  0  0  0
 11 12  1  0  0  0  0
 12  7  2  0  0  0  0
 13 14  1  0  0  0  0
 13 11  1  0  0  0  0
 16  1  1  0  0  0  0
 16 15  1  0  0  0  0
 17 16  2  0  0  0  0
 18 19  1  0  0  0  0
 21 20  1  0  0  0  0
M  END
>  <minimizedAffinity>
-6.57948065

$$$$
