
 OpenBabel09122222393D

 21 22  0  0  0  0  0  0  0  0999 V2000
    8.3520   -4.3980    0.8760 C   0  0  0  0  0  0  0  0  0  0  0  0
    9.2550   -4.0000   -0.0690 N   0  0  0  0  0  0  0  0  0  0  0  0
    9.9460   -2.8640    0.1450 C   0  0  0  0  0  0  0  0  0  0  0  0
    9.8180   -2.0770    1.2310 N   0  0  0  0  0  0  0  0  0  0  0  0
    8.9240   -2.5010    2.1300 C   0  0  0  0  0  0  0  0  0  0  0  0
    8.1620   -3.6440    2.0200 C   0  0  0  0  0  0  0  0  0  0  0  0
   10.9190   -2.4510   -0.8880 C   0  0  0  0  0  0  0  0  0  0  0  0
   11.9960   -3.2820   -1.2580 C   0  0  0  0  0  3  0  0  0  0  0  0
   12.9190   -2.8940   -2.2360 C   0  0  0  0  0  3  0  0  0  0  0  0
   12.7850   -1.6620   -2.8690 C   0  0  0  0  0  3  0  0  0  0  0  0
   11.7330   -0.8290   -2.5190 C   0  0  0  0  0  0  0  0  0  0  0  0
   10.8090   -1.2090   -1.5450 C   0  0  0  0  0  3  0  0  0  0  0  0
   11.6300    0.3740   -3.1560 O   0  0  0  0  0  0  0  0  0  0  0  0
   10.8510    0.8320   -2.7980 H   0  0  0  0  0  0  0  0  0  0  0  0
    6.8290   -5.7270   -0.3730 O   0  0  0  0  0  0  0  0  0  0  0  0
    7.5360   -5.6770    0.6960 C   0  0  0  0  0  0  0  0  0  0  0  0
    7.6020   -6.5840    1.5810 O   0  0  0  0  0  1  0  0  0  0  0  0
    8.7740   -1.7130    3.2470 O   0  0  0  0  0  0  0  0  0  0  0  0
    8.0920   -2.1940    3.7540 H   0  0  0  0  0  0  0  0  0  0  0  0
    7.2840   -3.9510    3.0270 O   0  0  0  0  0  0  0  0  0  0  0  0
    6.8490   -4.8060    2.7370 H   0  0  0  0  0  0  0  0  0  0  0  0
  1  6  2  0  0  0  0
  2  3  2  0  0  0  0
  2  1  1  0  0  0  0
  3  4  1  0  0  0  0
  4  5  2  0  0  0  0
  5 18  1  0  0  0  0
  6  5  1  0  0  0  0
  6 20  1  0  0  0  0
  7  3  1  0  0  0  0
  8  7  1  0  0  0  0
  9  8  2  0  0  0  0
 10 11  2  0  0  0  0
 10  9  1  0  0  0  0
 11 12  1  0  0  0  0
 12  7  2  0  0  0  0
 13 14  1  0  0  0  0
 13 11  1  0  0  0  0
 15 16  2  0  0  0  0
 16  1  1  0  0  0  0
 16 17  1  0  0  0  0
 18 19  1  0  0  0  0
 21 20  1  0  0  0  0
M  END
>  <minimizedAffinity>
-7.44857073

$$$$
