
 OpenBabel09122222393D

 21 22  0  0  0  0  0  0  0  0999 V2000
   11.0690   -1.1890   -1.4580 C   0  0  0  0  0  0  0  0  0  0  0  0
   10.1040   -1.7900   -0.7010 N   0  0  0  0  0  0  0  0  0  0  0  0
   10.2050   -3.1130   -0.4680 C   0  0  0  0  0  0  0  0  0  0  0  0
   11.1950   -3.9030   -0.9280 N   0  0  0  0  0  0  0  0  0  0  0  0
   12.1170   -3.2760   -1.6660 C   0  0  0  0  0  0  0  0  0  0  0  0
   12.1180   -1.9320   -1.9690 C   0  0  0  0  0  0  0  0  0  0  0  0
    9.1520   -3.7450    0.3550 C   0  0  0  0  0  0  0  0  0  0  0  0
    8.4480   -4.8800   -0.0970 C   0  0  0  0  0  3  0  0  0  0  0  0
    7.4500   -5.4810    0.6790 C   0  0  0  0  0  3  0  0  0  0  0  0
    7.1350   -4.9590    1.9300 C   0  0  0  0  0  3  0  0  0  0  0  0
    7.8160   -3.8430    2.3940 C   0  0  0  0  0  0  0  0  0  0  0  0
    8.8120   -3.2390    1.6250 C   0  0  0  0  0  3  0  0  0  0  0  0
    7.4820   -3.3540    3.6240 O   0  0  0  0  0  0  0  0  0  0  0  0
    8.0430   -2.5790    3.7950 H   0  0  0  0  0  0  0  0  0  0  0  0
   10.5800    1.0410   -0.8000 O   0  0  0  0  0  1  0  0  0  0  0  0
   11.0150    0.3080   -1.7580 C   0  0  0  0  0  0  0  0  0  0  0  0
   11.3900    0.7260   -2.8970 O   0  0  0  0  0  0  0  0  0  0  0  0
   13.1370   -4.0620   -2.1490 O   0  0  0  0  0  0  0  0  0  0  0  0
   13.6800   -3.4200   -2.6460 H   0  0  0  0  0  0  0  0  0  0  0  0
   13.1360   -1.4300   -2.7380 O   0  0  0  0  0  0  0  0  0  0  0  0
   12.9330   -0.4530   -2.8260 H   0  0  0  0  0  0  0  0  0  0  0  0
  1  2  1  0  0  0  0
  2  3  2  0  0  0  0
  3  7  1  0  0  0  0
  4  3  1  0  0  0  0
  5  4  2  0  0  0  0
  6  5  1  0  0  0  0
  6  1  2  0  0  0  0
  7 12  1  0  0  0  0
  8  7  2  0  0  0  0
  8  9  1  0  0  0  0
  9 10  2  0  0  0  0
 10 11  1  0  0  0  0
 11 13  1  0  0  0  0
 12 11  2  0  0  0  0
 13 14  1  0  0  0  0
 16  1  1  0  0  0  0
 16 15  1  0  0  0  0
 17 16  2  0  0  0  0
 18  5  1  0  0  0  0
 19 18  1  0  0  0  0
 20  6  1  0  0  0  0
 21 20  1  0  0  0  0
M  END
>  <minimizedAffinity>
-7.12924814

$$$$
