
 OpenBabel09122222393D

 21 22  0  0  0  0  0  0  0  0999 V2000
   11.1350    1.2850   -1.0070 C   0  0  0  0  0  0  0  0  0  0  0  0
   10.4960    0.3730   -0.2160 N   0  0  0  0  0  0  0  0  0  0  0  0
   10.4230   -0.9040   -0.6400 C   0  0  0  0  0  0  0  0  0  0  0  0
   10.9370   -1.3610   -1.7980 N   0  0  0  0  0  0  0  0  0  0  0  0
   11.5530   -0.4380   -2.5430 C   0  0  0  0  0  0  0  0  0  0  0  0
   11.6900    0.8930   -2.2130 C   0  0  0  0  0  0  0  0  0  0  0  0
    9.7280   -1.8750    0.2310 C   0  0  0  0  0  0  0  0  0  0  0  0
    9.1610   -1.4850    1.4620 C   0  0  0  0  0  3  0  0  0  0  0  0
    8.5030   -2.4010    2.2890 C   0  0  0  0  0  3  0  0  0  0  0  0
    8.3940   -3.7340    1.9030 C   0  0  0  0  0  3  0  0  0  0  0  0
    8.9450   -4.1390    0.6960 C   0  0  0  0  0  0  0  0  0  0  0  0
    9.6030   -3.2300   -0.1340 C   0  0  0  0  0  3  0  0  0  0  0  0
    8.8250   -5.4530    0.3450 O   0  0  0  0  0  0  0  0  0  0  0  0
    9.2610   -5.5700   -0.5150 H   0  0  0  0  0  0  0  0  0  0  0  0
   12.4180    3.2660   -0.7370 O   0  0  0  0  0  0  0  0  0  0  0  0
   11.2550    2.7480   -0.5840 C   0  0  0  0  0  0  0  0  0  0  0  0
   10.2340    3.3450   -0.1230 O   0  0  0  0  0  1  0  0  0  0  0  0
   12.0850   -0.8810   -3.7310 O   0  0  0  0  0  0  0  0  0  0  0  0
   12.4750   -0.0660   -4.1040 H   0  0  0  0  0  0  0  0  0  0  0  0
   12.3510    1.7230   -3.0800 O   0  0  0  0  0  0  0  0  0  0  0  0
   12.3290    2.6240   -2.6410 H   0  0  0  0  0  0  0  0  0  0  0  0
  1 16  1  0  0  0  0
  1  2  1  0  0  0  0
  3  2  2  0  0  0  0
  3  7  1  0  0  0  0
  4  3  1  0  0  0  0
  5  6  1  0  0  0  0
  5  4  2  0  0  0  0
  6  1  2  0  0  0  0
  7  8  1  0  0  0  0
  8  9  2  0  0  0  0
 10  9  1  0  0  0  0
 11 10  2  0  0  0  0
 12  7  2  0  0  0  0
 12 11  1  0  0  0  0
 13 11  1  0  0  0  0
 14 13  1  0  0  0  0
 15 16  2  0  0  0  0
 16 17  1  0  0  0  0
 18  5  1  0  0  0  0
 19 18  1  0  0  0  0
 20 21  1  0  0  0  0
 20  6  1  0  0  0  0
M  END
>  <minimizedAffinity>
-6.65994215

$$$$
