
 OpenBabel09122222393D

 25 28  0  0  0  0  0  0  0  0999 V2000
    6.3500   -6.0660   -0.0200 C   0  0  0  0  0  0  0  0  0  0  0  0
    7.1870   -5.6500   -1.0650 C   0  0  0  0  0  3  0  0  0  0  0  0
    8.1980   -4.6980   -0.8640 C   0  0  0  0  0  3  0  0  0  0  0  0
    8.3910   -4.1360    0.4160 C   0  0  0  0  0  0  0  0  0  0  0  0
    9.3020   -3.1690    0.9760 C   0  0  0  0  0  0  0  0  0  0  0  0
    8.9720   -3.0360    2.3230 C   0  0  0  0  0  0  0  0  0  0  0  0
    7.9220   -3.8870    2.5740 N   0  0  0  0  0  0  0  0  0  0  0  0
    7.5510   -4.5620    1.4410 C   0  0  0  0  0  0  0  0  0  0  0  0
    6.5340   -5.5090    1.2570 C   0  0  0  0  0  3  0  0  0  0  0  0
    7.4640   -3.9950    3.4660 H   0  0  0  0  0  0  0  0  0  0  0  0
   10.4170   -2.4420    0.2600 C   0  0  0  0  0  3  0  0  0  0  0  0
   11.2570   -3.3770   -0.6260 C   0  0  0  0  0  2  0  0  0  0  0  0
   12.3940   -2.6250   -1.3160 C   0  0  0  0  0  2  0  0  0  0  0  0
   11.8770   -1.4240   -2.1030 C   0  0  0  0  0  2  0  0  0  0  0  0
   11.0520   -0.4880   -1.2260 C   0  0  0  0  0  2  0  0  0  0  0  0
    9.9080   -1.2260   -0.5320 C   0  0  0  0  0  2  0  0  0  0  0  0
    9.5280   -2.1960    3.3790 C   0  0  0  0  0  0  0  0  0  0  0  0
    9.4720   -0.8020    3.2790 C   0  0  0  0  0  3  0  0  0  0  0  0
    9.9970    0.0020    4.2930 C   0  0  0  0  0  3  0  0  0  0  0  0
   10.5800   -0.5840    5.4160 C   0  0  0  0  0  3  0  0  0  0  0  0
   10.6380   -1.9730    5.5250 C   0  0  0  0  0  3  0  0  0  0  0  0
   10.1130   -2.7760    4.5110 C   0  0  0  0  0  3  0  0  0  0  0  0
    4.2530   -7.0700    0.5180 O   0  0  0  0  0  1  0  0  0  0  0  0
    5.2610   -7.0980   -0.2580 C   0  0  0  0  0  0  0  0  0  0  0  0
    5.4360   -7.9160   -1.2170 O   0  0  0  0  0  0  0  0  0  0  0  0
  1  9  1  0  0  0  0
  2  3  1  0  0  0  0
  2  1  2  0  0  0  0
  3  4  2  0  0  0  0
  4  5  1  0  0  0  0
  4  8  1  0  0  0  0
  5  6  2  0  0  0  0
  6  7  1  0  0  0  0
  6 17  1  0  0  0  0
  7 10  1  0  0  0  0
  8  7  1  0  0  0  0
  9  8  2  0  0  0  0
 11  5  1  0  0  0  0
 12 11  1  0  0  0  0
 13 12  1  0  0  0  0
 14 13  1  0  0  0  0
 14 15  1  0  0  0  0
 15 16  1  0  0  0  0
 16 11  1  0  0  0  0
 17 22  1  0  0  0  0
 18 17  2  0  0  0  0
 18 19  1  0  0  0  0
 19 20  2  0  0  0  0
 20 21  1  0  0  0  0
 22 21  2  0  0  0  0
 24  1  1  0  0  0  0
 24 23  1  0  0  0  0
 25 24  2  0  0  0  0
M  END
>  <minimizedAffinity>
-7.79716921

$$$$
