
 OpenBabel09122222393D

 25 28  0  0  0  0  0  0  0  0999 V2000
    8.1780   -4.5320    0.6480 C   0  0  0  0  0  0  0  0  0  0  0  0
    7.6290   -3.8990    1.7710 C   0  0  0  0  0  3  0  0  0  0  0  0
    6.6080   -4.4940    2.5280 C   0  0  0  0  0  3  0  0  0  0  0  0
    6.1110   -5.7640    2.1630 C   0  0  0  0  0  0  0  0  0  0  0  0
    5.1060   -6.6540    2.6890 C   0  0  0  0  0  0  0  0  0  0  0  0
    5.0850   -7.7740    1.8600 C   0  0  0  0  0  0  0  0  0  0  0  0
    6.0360   -7.5820    0.8870 N   0  0  0  0  0  0  0  0  0  0  0  0
    6.6690   -6.3780    1.0450 C   0  0  0  0  0  0  0  0  0  0  0  0
    7.6870   -5.7960    0.2770 C   0  0  0  0  0  3  0  0  0  0  0  0
    6.2380   -8.2280    0.1400 H   0  0  0  0  0  0  0  0  0  0  0  0
    4.2430   -6.4370    3.9110 C   0  0  0  0  0  3  0  0  0  0  0  0
    3.3550   -5.1870    3.7910 C   0  0  0  0  0  2  0  0  0  0  0  0
    2.5150   -4.9730    5.0490 C   0  0  0  0  0  2  0  0  0  0  0  0
    1.6940   -6.2120    5.3940 C   0  0  0  0  0  2  0  0  0  0  0  0
    2.5730   -7.4520    5.5250 C   0  0  0  0  0  2  0  0  0  0  0  0
    3.4160   -7.6810    4.2720 C   0  0  0  0  0  2  0  0  0  0  0  0
    4.2670   -8.9820    1.8860 C   0  0  0  0  0  0  0  0  0  0  0  0
    4.6720  -10.0970    2.6280 C   0  0  0  0  0  3  0  0  0  0  0  0
    3.8850  -11.2500    2.6600 C   0  0  0  0  0  3  0  0  0  0  0  0
    2.6860  -11.2960    1.9490 C   0  0  0  0  0  3  0  0  0  0  0  0
    2.2730  -10.1880    1.2080 C   0  0  0  0  0  3  0  0  0  0  0  0
    3.0600   -9.0360    1.1780 C   0  0  0  0  0  3  0  0  0  0  0  0
    9.8630   -2.8660    0.3670 O   0  0  0  0  0  1  0  0  0  0  0  0
    9.2830   -3.8710   -0.1570 C   0  0  0  0  0  0  0  0  0  0  0  0
    9.5500   -4.3700   -1.2960 O   0  0  0  0  0  0  0  0  0  0  0  0
  1  2  1  0  0  0  0
  2  3  2  0  0  0  0
  4  3  1  0  0  0  0
  4  5  1  0  0  0  0
  5 11  1  0  0  0  0
  6 17  1  0  0  0  0
  6  5  2  0  0  0  0
  7  8  1  0  0  0  0
  7  6  1  0  0  0  0
  8  4  2  0  0  0  0
  9  1  2  0  0  0  0
  9  8  1  0  0  0  0
 10  7  1  0  0  0  0
 11 16  1  0  0  0  0
 12 11  1  0  0  0  0
 12 13  1  0  0  0  0
 13 14  1  0  0  0  0
 14 15  1  0  0  0  0
 16 15  1  0  0  0  0
 17 18  1  0  0  0  0
 18 19  2  0  0  0  0
 20 19  1  0  0  0  0
 21 20  2  0  0  0  0
 22 21  1  0  0  0  0
 22 17  2  0  0  0  0
 24 23  1  0  0  0  0
 24  1  1  0  0  0  0
 25 24  2  0  0  0  0
M  END
>  <minimizedAffinity>
-5.99923611

$$$$
