
 OpenBabel09122222393D

 25 28  0  0  0  0  0  0  0  0999 V2000
    2.6660   -3.1850    4.4330 C   0  0  0  0  0  0  0  0  0  0  0  0
    3.5780   -2.7890    3.4450 C   0  0  0  0  0  3  0  0  0  0  0  0
    4.3340   -3.7250    2.7220 C   0  0  0  0  0  3  0  0  0  0  0  0
    4.1820   -5.1030    2.9820 C   0  0  0  0  0  0  0  0  0  0  0  0
    4.7660   -6.3100    2.4510 C   0  0  0  0  0  0  0  0  0  0  0  0
    4.1930   -7.3750    3.1420 C   0  0  0  0  0  0  0  0  0  0  0  0
    3.2970   -6.8460    4.0400 N   0  0  0  0  0  0  0  0  0  0  0  0
    3.2710   -5.4780    3.9650 C   0  0  0  0  0  0  0  0  0  0  0  0
    2.5110   -4.5570    4.6990 C   0  0  0  0  0  3  0  0  0  0  0  0
    2.7390   -7.3820    4.6860 H   0  0  0  0  0  0  0  0  0  0  0  0
    5.7920   -6.4180    1.3450 C   0  0  0  0  0  3  0  0  0  0  0  0
    5.1650   -6.3020   -0.0540 C   0  0  0  0  0  2  0  0  0  0  0  0
    6.2170   -6.4440   -1.1530 C   0  0  0  0  0  2  0  0  0  0  0  0
    7.3610   -5.4510   -0.9680 C   0  0  0  0  0  2  0  0  0  0  0  0
    7.9930   -5.5710    0.4150 C   0  0  0  0  0  2  0  0  0  0  0  0
    6.9530   -5.4270    1.5250 C   0  0  0  0  0  2  0  0  0  0  0  0
    4.4060   -8.8160    3.0520 C   0  0  0  0  0  0  0  0  0  0  0  0
    3.7580   -9.5680    2.0670 C   0  0  0  0  0  3  0  0  0  0  0  0
    3.9680  -10.9450    1.9750 C   0  0  0  0  0  3  0  0  0  0  0  0
    4.8310  -11.5800    2.8690 C   0  0  0  0  0  3  0  0  0  0  0  0
    5.4840  -10.8370    3.8530 C   0  0  0  0  0  3  0  0  0  0  0  0
    5.2720   -9.4600    3.9430 C   0  0  0  0  0  3  0  0  0  0  0  0
    2.4460   -1.0750    5.5250 O   0  0  0  0  0  1  0  0  0  0  0  0
    1.8570   -2.1570    5.2050 C   0  0  0  0  0  0  0  0  0  0  0  0
    0.6490   -2.4510    5.4730 O   0  0  0  0  0  0  0  0  0  0  0  0
  1  9  1  0  0  0  0
  1 24  1  0  0  0  0
  2  1  2  0  0  0  0
  3  4  2  0  0  0  0
  3  2  1  0  0  0  0
  4  8  1  0  0  0  0
  5  4  1  0  0  0  0
  5  6  2  0  0  0  0
  6  7  1  0  0  0  0
  7 10  1  0  0  0  0
  8  7  1  0  0  0  0
  8  9  2  0  0  0  0
 11 16  1  0  0  0  0
 11  5  1  0  0  0  0
 12 11  1  0  0  0  0
 13 14  1  0  0  0  0
 13 12  1  0  0  0  0
 14 15  1  0  0  0  0
 15 16  1  0  0  0  0
 17  6  1  0  0  0  0
 17 22  1  0  0  0  0
 18 17  2  0  0  0  0
 19 18  1  0  0  0  0
 19 20  2  0  0  0  0
 20 21  1  0  0  0  0
 21 22  2  0  0  0  0
 24 25  2  0  0  0  0
 24 23  1  0  0  0  0
M  END
>  <minimizedAffinity>
-5.69473457

$$$$
