
 OpenBabel09122222393D

 25 28  0  0  0  0  0  0  0  0999 V2000
    3.8910   -9.5870    2.3360 C   0  0  0  0  0  0  0  0  0  0  0  0
    3.2030   -8.7220    3.1970 C   0  0  0  0  0  3  0  0  0  0  0  0
    3.6080   -7.3910    3.3820 C   0  0  0  0  0  3  0  0  0  0  0  0
    4.7330   -6.8950    2.6900 C   0  0  0  0  0  0  0  0  0  0  0  0
    5.4130   -5.6250    2.6300 C   0  0  0  0  0  0  0  0  0  0  0  0
    6.4820   -5.7800    1.7490 C   0  0  0  0  0  0  0  0  0  0  0  0
    6.4470   -7.0730    1.2870 N   0  0  0  0  0  0  0  0  0  0  0  0
    5.4030   -7.7680    1.8390 C   0  0  0  0  0  0  0  0  0  0  0  0
    5.0150   -9.1010    1.6440 C   0  0  0  0  0  3  0  0  0  0  0  0
    7.1080   -7.4750    0.6400 H   0  0  0  0  0  0  0  0  0  0  0  0
    5.0440   -4.3550    3.3620 C   0  0  0  0  0  3  0  0  0  0  0  0
    3.5370   -4.0550    3.2980 C   0  0  0  0  0  2  0  0  0  0  0  0
    3.1920   -2.7530    4.0190 C   0  0  0  0  0  2  0  0  0  0  0  0
    3.7010   -2.7570    5.4590 C   0  0  0  0  0  2  0  0  0  0  0  0
    5.1980   -3.0420    5.5250 C   0  0  0  0  0  2  0  0  0  0  0  0
    5.5570   -4.3450    4.8110 C   0  0  0  0  0  2  0  0  0  0  0  0
    7.5200   -4.8520    1.3130 C   0  0  0  0  0  0  0  0  0  0  0  0
    7.9650   -3.8350    2.1640 C   0  0  0  0  0  3  0  0  0  0  0  0
    8.9640   -2.9520    1.7500 C   0  0  0  0  0  3  0  0  0  0  0  0
    9.5280   -3.0830    0.4810 C   0  0  0  0  0  3  0  0  0  0  0  0
    9.0920   -4.0950   -0.3740 C   0  0  0  0  0  3  0  0  0  0  0  0
    8.0920   -4.9770    0.0420 C   0  0  0  0  0  3  0  0  0  0  0  0
    3.4250  -11.4810    0.9610 O   0  0  0  0  0  0  0  0  0  0  0  0
    3.4370  -11.0250    2.1490 C   0  0  0  0  0  0  0  0  0  0  0  0
    3.1020  -11.6680    3.1940 O   0  0  0  0  0  1  0  0  0  0  0  0
  1  2  1  0  0  0  0
  2  3  2  0  0  0  0
  4  3  1  0  0  0  0
  5  4  1  0  0  0  0
  5 11  1  0  0  0  0
  6  5  2  0  0  0  0
  7  6  1  0  0  0  0
  7  8  1  0  0  0  0
  8  4  2  0  0  0  0
  9  8  1  0  0  0  0
  9  1  2  0  0  0  0
 10  7  1  0  0  0  0
 11 16  1  0  0  0  0
 12 11  1  0  0  0  0
 12 13  1  0  0  0  0
 13 14  1  0  0  0  0
 14 15  1  0  0  0  0
 16 15  1  0  0  0  0
 17  6  1  0  0  0  0
 17 18  1  0  0  0  0
 19 18  2  0  0  0  0
 20 19  1  0  0  0  0
 21 22  1  0  0  0  0
 21 20  2  0  0  0  0
 22 17  2  0  0  0  0
 23 24  2  0  0  0  0
 24  1  1  0  0  0  0
 24 25  1  0  0  0  0
M  END
>  <minimizedAffinity>
-6.48771954

$$$$
