
 OpenBabel09122222393D

 25 28  0  0  0  0  0  0  0  0999 V2000
    9.7160   -3.4000    0.2320 C   0  0  0  0  0  0  0  0  0  0  0  0
    9.1730   -2.6510    1.2850 C   0  0  0  0  0  3  0  0  0  0  0  0
    8.0630   -3.1030    2.0150 C   0  0  0  0  0  3  0  0  0  0  0  0
    7.4670   -4.3410    1.6950 C   0  0  0  0  0  0  0  0  0  0  0  0
    6.3570   -5.1010    2.2130 C   0  0  0  0  0  0  0  0  0  0  0  0
    6.2700   -6.2630    1.4500 C   0  0  0  0  0  0  0  0  0  0  0  0
    7.2840   -6.2200    0.5220 N   0  0  0  0  0  0  0  0  0  0  0  0
    8.0200   -5.0710    0.6470 C   0  0  0  0  0  0  0  0  0  0  0  0
    9.1260   -4.6340   -0.0940 C   0  0  0  0  0  3  0  0  0  0  0  0
    7.4610   -6.9260   -0.1750 H   0  0  0  0  0  0  0  0  0  0  0  0
    5.4580   -4.7310    3.3720 C   0  0  0  0  0  3  0  0  0  0  0  0
    6.1290   -3.7510    4.3490 C   0  0  0  0  0  2  0  0  0  0  0  0
    5.2130   -3.4160    5.5250 C   0  0  0  0  0  2  0  0  0  0  0  0
    3.8590   -2.8940    5.0510 C   0  0  0  0  0  2  0  0  0  0  0  0
    3.1850   -3.8690    4.0900 C   0  0  0  0  0  2  0  0  0  0  0  0
    4.0880   -4.2100    2.9060 C   0  0  0  0  0  2  0  0  0  0  0  0
    5.3410   -7.3870    1.4980 C   0  0  0  0  0  0  0  0  0  0  0  0
    5.4840   -8.3840    2.4680 C   0  0  0  0  0  3  0  0  0  0  0  0
    4.5900   -9.4550    2.5200 C   0  0  0  0  0  3  0  0  0  0  0  0
    3.5450   -9.5360    1.6000 C   0  0  0  0  0  3  0  0  0  0  0  0
    3.3930   -8.5450    0.6290 C   0  0  0  0  0  3  0  0  0  0  0  0
    4.2880   -7.4740    0.5800 C   0  0  0  0  0  3  0  0  0  0  0  0
   10.6870   -2.1930   -1.5830 O   0  0  0  0  0  0  0  0  0  0  0  0
   10.9180   -2.8930   -0.5460 C   0  0  0  0  0  0  0  0  0  0  0  0
   12.0690   -3.2060   -0.1040 O   0  0  0  0  0  1  0  0  0  0  0  0
  1  2  1  0  0  0  0
  2  3  2  0  0  0  0
  4  3  1  0  0  0  0
  4  5  1  0  0  0  0
  5 11  1  0  0  0  0
  6 17  1  0  0  0  0
  6  5  2  0  0  0  0
  7  8  1  0  0  0  0
  7  6  1  0  0  0  0
  8  4  2  0  0  0  0
  9  1  2  0  0  0  0
  9  8  1  0  0  0  0
 10  7  1  0  0  0  0
 11 12  1  0  0  0  0
 12 13  1  0  0  0  0
 14 13  1  0  0  0  0
 15 14  1  0  0  0  0
 16 11  1  0  0  0  0
 16 15  1  0  0  0  0
 17 18  1  0  0  0  0
 18 19  2  0  0  0  0
 20 19  1  0  0  0  0
 21 20  2  0  0  0  0
 22 21  1  0  0  0  0
 22 17  2  0  0  0  0
 23 24  2  0  0  0  0
 24 25  1  0  0  0  0
 24  1  1  0  0  0  0
M  END
>  <minimizedAffinity>
-7.11355114

$$$$
