
 OpenBabel09122222393D

 25 28  0  0  0  0  0  0  0  0999 V2000
    7.2160   -5.6240    1.1390 C   0  0  0  0  0  0  0  0  0  0  0  0
    8.0020   -5.4790   -0.0120 C   0  0  0  0  0  3  0  0  0  0  0  0
    8.8260   -4.3590   -0.2050 C   0  0  0  0  0  3  0  0  0  0  0  0
    8.8770   -3.3450    0.7750 C   0  0  0  0  0  0  0  0  0  0  0  0
    9.5870   -2.0990    0.9150 C   0  0  0  0  0  0  0  0  0  0  0  0
    9.1950   -1.5440    2.1320 C   0  0  0  0  0  0  0  0  0  0  0  0
    8.3010   -2.4130    2.7090 N   0  0  0  0  0  0  0  0  0  0  0  0
    8.0900   -3.5080    1.9120 C   0  0  0  0  0  0  0  0  0  0  0  0
    7.2600   -4.6180    2.1200 C   0  0  0  0  0  3  0  0  0  0  0  0
    7.8410   -2.2670    3.5950 H   0  0  0  0  0  0  0  0  0  0  0  0
   10.5820   -1.5000   -0.0540 C   0  0  0  0  0  3  0  0  0  0  0  0
   11.3900   -2.5710   -0.8050 C   0  0  0  0  0  2  0  0  0  0  0  0
   12.4070   -1.9430   -1.7560 C   0  0  0  0  0  2  0  0  0  0  0  0
   11.7450   -0.9630   -2.7200 C   0  0  0  0  0  2  0  0  0  0  0  0
   10.9510    0.1080   -1.9780 C   0  0  0  0  0  2  0  0  0  0  0  0
    9.9260   -0.5070   -1.0260 C   0  0  0  0  0  2  0  0  0  0  0  0
    9.5630   -0.2950    2.7900 C   0  0  0  0  0  0  0  0  0  0  0  0
    9.9420   -0.2890    4.1370 C   0  0  0  0  0  3  0  0  0  0  0  0
   10.3020    0.9050    4.7650 C   0  0  0  0  0  3  0  0  0  0  0  0
   10.2870    2.1020    4.0490 C   0  0  0  0  0  3  0  0  0  0  0  0
    9.9120    2.1050    2.7060 C   0  0  0  0  0  3  0  0  0  0  0  0
    9.5530    0.9110    2.0790 C   0  0  0  0  0  3  0  0  0  0  0  0
    5.9050   -7.4230    0.2800 O   0  0  0  0  0  0  0  0  0  0  0  0
    6.3310   -6.8440    1.3300 C   0  0  0  0  0  0  0  0  0  0  0  0
    6.0820   -7.1990    2.5260 O   0  0  0  0  0  1  0  0  0  0  0  0
  1 24  1  0  0  0  0
  1  9  1  0  0  0  0
  2  1  2  0  0  0  0
  3  2  1  0  0  0  0
  3  4  2  0  0  0  0
  4  5  1  0  0  0  0
  4  8  1  0  0  0  0
  5  6  2  0  0  0  0
  6  7  1  0  0  0  0
  6 17  1  0  0  0  0
  7 10  1  0  0  0  0
  8  9  2  0  0  0  0
  8  7  1  0  0  0  0
 11  5  1  0  0  0  0
 12 11  1  0  0  0  0
 13 12  1  0  0  0  0
 14 15  1  0  0  0  0
 14 13  1  0  0  0  0
 15 16  1  0  0  0  0
 16 11  1  0  0  0  0
 17 18  1  0  0  0  0
 18 19  2  0  0  0  0
 20 19  1  0  0  0  0
 21 20  2  0  0  0  0
 22 21  1  0  0  0  0
 22 17  2  0  0  0  0
 23 24  2  0  0  0  0
 24 25  1  0  0  0  0
M  END
>  <minimizedAffinity>
-7.22727776

$$$$
