
 OpenBabel09132204463D

 48 54  0  0  0  0  0  0  0  0999 V2000
    4.3830  -12.7540   -0.5550 C   0  0  0  0  0  1  0  0  0  0  0  0
    3.5620  -12.1180    0.5080 C   0  0  0  0  0  0  0  0  0  0  0  0
    3.9110  -11.0340    1.1660 N   0  0  0  0  0  0  0  0  0  0  0  0
    2.9470  -10.7190    2.0940 C   0  0  0  0  0  0  0  0  0  0  0  0
    1.8300  -11.5390    2.0880 C   0  0  0  0  0  0  0  0  0  0  0  0
    2.0430  -12.7930    0.9450 S   0  0  0  0  0  0  0  0  0  0  0  0
    0.5490  -11.3540    2.8350 C   0  0  0  0  0  2  0  0  0  0  0  0
    0.6940  -11.3820    4.3550 C   0  0  0  0  0  2  0  0  0  0  0  0
    1.9920  -10.8110    4.9240 C   0  0  0  0  0  2  0  0  0  0  0  0
    2.4670   -9.5890    4.2920 N   0  0  0  0  0  0  0  0  0  0  0  0
    3.0590   -9.5680    3.0450 C   0  0  0  0  0  0  0  0  0  0  0  0
    3.7330   -8.3620    2.9070 C   0  0  0  0  0  0  0  0  0  0  0  0
    3.4170   -7.5910    4.0880 C   0  0  0  0  0  0  0  0  0  0  0  0
    3.7450   -6.2850    4.5230 C   0  0  0  0  0  3  0  0  0  0  0  0
    3.2800   -5.8080    5.7570 C   0  0  0  0  0  3  0  0  0  0  0  0
    2.4940   -6.6190    6.5760 C   0  0  0  0  0  0  0  0  0  0  0  0
    2.1390   -7.9110    6.1570 C   0  0  0  0  0  3  0  0  0  0  0  0
    2.6140   -8.3740    4.9180 C   0  0  0  0  0  0  0  0  0  0  0  0
    4.5870   -7.8490    1.7640 C   0  0  0  0  0  3  0  0  0  0  0  0
    3.7820   -7.6490    0.4690 C   0  0  0  0  0  2  0  0  0  0  0  0
    4.6610   -7.1550   -0.6780 C   0  0  0  0  0  2  0  0  0  0  0  0
    5.4520   -5.9110   -0.2880 C   0  0  0  0  0  2  0  0  0  0  0  0
    6.2970   -6.1560    0.9580 C   0  0  0  0  0  2  0  0  0  0  0  0
    5.4410   -6.6260    2.1330 C   0  0  0  0  0  2  0  0  0  0  0  0
    1.9970   -6.1790    7.9140 C   0  0  0  0  0  0  0  0  0  0  0  0
    0.9540   -6.6510    8.3490 O   0  0  0  0  0  0  0  0  0  0  0  0
    2.7900   -5.2940    8.6020 N   0  0  0  0  0  0  0  0  0  0  0  0
    3.6840   -5.0190    8.2040 H   0  0  0  0  0  0  0  0  0  0  0  0
    2.6090   -4.8350   10.0130 C   0  0  0  0  0  0  0  0  0  0  0  0
    1.2040   -4.2560   10.2340 C   0  0  0  0  0  2  0  0  0  0  0  0
    0.5160   -5.1450   11.2670 C   0  0  0  0  0  2  0  0  0  0  0  0
    1.3540   -6.4090   11.3920 C   0  0  0  0  0  2  0  0  0  0  0  0
    2.7640   -6.0390   10.9480 C   0  0  0  0  0  2  0  0  0  0  0  0
    3.7660   -3.7920   10.1710 C   0  0  0  0  0  0  0  0  0  0  0  0
    4.7640   -3.9030    9.4300 O   0  0  0  0  0  0  0  0  0  0  0  0
    3.7970   -2.7140   10.9960 N   0  0  0  0  0  0  0  0  0  0  0  0
    4.5380   -2.0880   10.6990 H   0  0  0  0  0  0  0  0  0  0  0  0
    3.0840   -2.2620   12.1160 C   0  0  0  0  0  0  0  0  0  0  0  0
    2.3740   -1.0730   12.1830 C   0  0  0  0  0  3  0  0  0  0  0  0
    1.6460   -0.7320   13.3320 C   0  0  0  0  0  3  0  0  0  0  0  0
    1.6140   -1.5760   14.4450 C   0  0  0  0  0  0  0  0  0  0  0  0
    2.2970   -2.7910   14.3620 C   0  0  0  0  0  3  0  0  0  0  0  0
    3.0130   -3.1340   13.2080 C   0  0  0  0  0  3  0  0  0  0  0  0
    0.8390   -1.2690   15.6550 C   0  0  0  0  0  3  0  0  0  0  0  0
    0.4890   -2.1540   16.6020 C   0  0  0  0  0  3  0  0  0  0  0  0
   -0.3140   -1.7550   17.8410 C   0  0  0  0  0  0  0  0  0  0  0  0
   -1.3520   -1.0840   17.5780 O   0  0  0  0  0  0  0  0  0  0  0  0
    0.1430   -2.1370   18.9540 O   0  0  0  0  0  1  0  0  0  0  0  0
  1  2  1  0  0  0  0
  2  6  1  0  0  0  0
  2  3  2  0  0  0  0
  3  4  1  0  0  0  0
  4 11  1  0  0  0  0
  5  4  2  0  0  0  0
  5  7  1  0  0  0  0
  6  5  1  0  0  0  0
  7  8  1  0  0  0  0
  8  9  1  0  0  0  0
 10 18  1  0  0  0  0
 10  9  1  0  0  0  0
 11 10  1  0  0  0  0
 12 11  2  0  0  0  0
 12 13  1  0  0  0  0
 13 14  2  0  0  0  0
 13 18  1  0  0  0  0
 14 15  1  0  0  0  0
 15 16  2  0  0  0  0
 16 25  1  0  0  0  0
 17 16  1  0  0  0  0
 18 17  2  0  0  0  0
 19 24  1  0  0  0  0
 19 12  1  0  0  0  0
 20 19  1  0  0  0  0
 21 22  1  0  0  0  0
 21 20  1  0  0  0  0
 22 23  1  0  0  0  0
 23 24  1  0  0  0  0
 25 26  2  0  0  0  0
 25 27  1  0  0  0  0
 27 29  1  0  0  0  0
 28 27  1  0  0  0  0
 29 34  1  0  0  0  0
 29 30  1  0  0  0  0
 29 33  1  0  0  0  0
 30 31  1  0  0  0  0
 31 32  1  0  0  0  0
 33 32  1  0  0  0  0
 34 36  1  0  0  0  0
 35 34  2  0  0  0  0
 36 38  1  0  0  0  0
 37 36  1  0  0  0  0
 38 39  2  0  0  0  0
 38 43  1  0  0  0  0
 39 40  1  0  0  0  0
 40 41  2  0  0  0  0
 41 44  1  0  0  0  0
 42 41  1  0  0  0  0
 43 42  2  0  0  0  0
 44 45  2  0  0  0  0
 45 46  1  0  0  0  0
 46 48  1  0  0  0  0
 47 46  2  0  0  0  0
M  END
>  <minimizedAffinity>
-7.81959009

$$$$
