
 OpenBabel09132204463D

 48 54  0  0  0  0  0  0  0  0999 V2000
    2.8340   -3.2820    8.1990 C   0  0  0  0  0  1  0  0  0  0  0  0
    2.9590   -4.0630    6.9410 C   0  0  0  0  0  0  0  0  0  0  0  0
    2.3950   -5.2330    6.7350 N   0  0  0  0  0  0  0  0  0  0  0  0
    2.7240   -5.6970    5.4840 C   0  0  0  0  0  0  0  0  0  0  0  0
    3.4890   -4.8360    4.7150 C   0  0  0  0  0  0  0  0  0  0  0  0
    3.8820   -3.4450    5.6300 S   0  0  0  0  0  0  0  0  0  0  0  0
    3.8510   -4.9650    3.2710 C   0  0  0  0  0  2  0  0  0  0  0  0
    4.7020   -6.1890    2.9400 C   0  0  0  0  0  2  0  0  0  0  0  0
    4.4390   -7.4440    3.7700 C   0  0  0  0  0  2  0  0  0  0  0  0
    3.0390   -7.7340    4.0380 N   0  0  0  0  0  0  0  0  0  0  0  0
    2.2840   -7.0270    4.9520 C   0  0  0  0  0  0  0  0  0  0  0  0
    1.1530   -7.7750    5.2510 C   0  0  0  0  0  0  0  0  0  0  0  0
    1.1920   -8.9230    4.3740 C   0  0  0  0  0  0  0  0  0  0  0  0
    0.3220  -10.0180    4.1530 C   0  0  0  0  0  3  0  0  0  0  0  0
    0.6450  -11.0040    3.2100 C   0  0  0  0  0  3  0  0  0  0  0  0
    1.8340  -10.9230    2.4830 C   0  0  0  0  0  0  0  0  0  0  0  0
    2.7020   -9.8370    2.6710 C   0  0  0  0  0  3  0  0  0  0  0  0
    2.3640   -8.8570    3.6210 C   0  0  0  0  0  0  0  0  0  0  0  0
    0.0290   -7.4930    6.2270 C   0  0  0  0  0  3  0  0  0  0  0  0
   -1.3110   -7.2210    5.5220 C   0  0  0  0  0  2  0  0  0  0  0  0
   -2.4280   -6.9150    6.5170 C   0  0  0  0  0  2  0  0  0  0  0  0
   -2.5430   -7.9960    7.5870 C   0  0  0  0  0  2  0  0  0  0  0  0
   -1.2210   -8.1960    8.3210 C   0  0  0  0  0  2  0  0  0  0  0  0
   -0.0870   -8.5320    7.3540 C   0  0  0  0  0  2  0  0  0  0  0  0
    2.2470  -11.9600    1.4910 C   0  0  0  0  0  0  0  0  0  0  0  0
    2.3790  -11.6430    0.3150 O   0  0  0  0  0  0  0  0  0  0  0  0
    2.5090  -13.2140    1.9860 N   0  0  0  0  0  0  0  0  0  0  0  0
    2.4590  -13.3700    2.9890 H   0  0  0  0  0  0  0  0  0  0  0  0
    3.0950  -14.3700    1.2410 C   0  0  0  0  0  0  0  0  0  0  0  0
    2.0400  -15.0570    0.3620 C   0  0  0  0  0  2  0  0  0  0  0  0
    2.5030  -14.9050   -1.0850 C   0  0  0  0  0  2  0  0  0  0  0  0
    3.6090  -13.8610   -1.0900 C   0  0  0  0  0  2  0  0  0  0  0  0
    4.2010  -13.8510    0.3150 C   0  0  0  0  0  2  0  0  0  0  0  0
    3.6450  -15.2640    2.4020 C   0  0  0  0  0  0  0  0  0  0  0  0
    3.5890  -16.5040    2.2680 O   0  0  0  0  0  0  0  0  0  0  0  0
    4.2460  -14.8510    3.5470 N   0  0  0  0  0  0  0  0  0  0  0  0
    4.7230  -15.6370    3.9750 H   0  0  0  0  0  0  0  0  0  0  0  0
    4.3740  -13.6500    4.2600 C   0  0  0  0  0  0  0  0  0  0  0  0
    5.3320  -12.6770    4.0200 C   0  0  0  0  0  3  0  0  0  0  0  0
    5.3460  -11.4810    4.7530 C   0  0  0  0  0  3  0  0  0  0  0  0
    4.3980  -11.2340    5.7490 C   0  0  0  0  0  0  0  0  0  0  0  0
    3.4090  -12.1970    5.9640 C   0  0  0  0  0  3  0  0  0  0  0  0
    3.3910  -13.3840    5.2210 C   0  0  0  0  0  3  0  0  0  0  0  0
    4.3600   -9.9820    6.5180 C   0  0  0  0  0  3  0  0  0  0  0  0
    3.5240   -9.7170    7.5350 C   0  0  0  0  0  3  0  0  0  0  0  0
    3.5510   -8.3900    8.2950 C   0  0  0  0  0  0  0  0  0  0  0  0
    4.4320   -7.5860    7.8790 O   0  0  0  0  0  0  0  0  0  0  0  0
    2.7070   -8.2570    9.2240 O   0  0  0  0  0  1  0  0  0  0  0  0
  2  1  1  0  0  0  0
  3  2  2  0  0  0  0
  4  3  1  0  0  0  0
  5  4  2  0  0  0  0
  5  6  1  0  0  0  0
  6  2  1  0  0  0  0
  7  5  1  0  0  0  0
  8  7  1  0  0  0  0
  8  9  1  0  0  0  0
  9 10  1  0  0  0  0
 10 11  1  0  0  0  0
 11 12  2  0  0  0  0
 11  4  1  0  0  0  0
 12 19  1  0  0  0  0
 13 12  1  0  0  0  0
 14 13  1  0  0  0  0
 15 14  2  0  0  0  0
 16 17  2  0  0  0  0
 16 15  1  0  0  0  0
 17 18  1  0  0  0  0
 18 10  1  0  0  0  0
 18 13  2  0  0  0  0
 19 24  1  0  0  0  0
 20 19  1  0  0  0  0
 20 21  1  0  0  0  0
 21 22  1  0  0  0  0
 22 23  1  0  0  0  0
 24 23  1  0  0  0  0
 25 27  1  0  0  0  0
 25 16  1  0  0  0  0
 26 25  2  0  0  0  0
 27 28  1  0  0  0  0
 29 27  1  0  0  0  0
 29 34  1  0  0  0  0
 30 29  1  0  0  0  0
 31 30  1  0  0  0  0
 32 31  1  0  0  0  0
 32 33  1  0  0  0  0
 33 29  1  0  0  0  0
 34 36  1  0  0  0  0
 35 34  2  0  0  0  0
 36 37  1  0  0  0  0
 36 38  1  0  0  0  0
 38 43  1  0  0  0  0
 39 38  2  0  0  0  0
 39 40  1  0  0  0  0
 40 41  2  0  0  0  0
 41 42  1  0  0  0  0
 41 44  1  0  0  0  0
 43 42  2  0  0  0  0
 44 45  2  0  0  0  0
 45 46  1  0  0  0  0
 46 48  1  0  0  0  0
 47 46  2  0  0  0  0
M  END
>  <minimizedAffinity>
-7.97804546

$$$$
