
 OpenBabel09132204463D

 48 54  0  0  0  0  0  0  0  0999 V2000
    0.6670    0.4980   16.0350 C   0  0  0  0  0  1  0  0  0  0  0  0
    0.9590   -0.7450   15.2740 C   0  0  0  0  0  0  0  0  0  0  0  0
    1.5660   -0.7750   14.1080 N   0  0  0  0  0  0  0  0  0  0  0  0
    1.6620   -2.0720   13.6640 C   0  0  0  0  0  0  0  0  0  0  0  0
    1.1810   -3.0340   14.5370 C   0  0  0  0  0  0  0  0  0  0  0  0
    0.5050   -2.2750   15.9130 S   0  0  0  0  0  0  0  0  0  0  0  0
    1.3050   -4.5190   14.4310 C   0  0  0  0  0  2  0  0  0  0  0  0
    0.6130   -5.1250   13.2110 C   0  0  0  0  0  2  0  0  0  0  0  0
    0.6020   -4.2740   11.9430 C   0  0  0  0  0  2  0  0  0  0  0  0
    1.8430   -3.5730   11.6500 N   0  0  0  0  0  0  0  0  0  0  0  0
    2.2580   -2.4530   12.3430 C   0  0  0  0  0  0  0  0  0  0  0  0
    3.2360   -1.8160   11.5920 C   0  0  0  0  0  0  0  0  0  0  0  0
    3.4900   -2.6760   10.4580 C   0  0  0  0  0  0  0  0  0  0  0  0
    4.3910   -2.6200    9.3680 C   0  0  0  0  0  3  0  0  0  0  0  0
    4.3950   -3.6310    8.3960 C   0  0  0  0  0  3  0  0  0  0  0  0
    3.5040   -4.7020    8.4880 C   0  0  0  0  0  0  0  0  0  0  0  0
    2.6150   -4.7880    9.5700 C   0  0  0  0  0  3  0  0  0  0  0  0
    2.6230   -3.7660   10.5350 C   0  0  0  0  0  0  0  0  0  0  0  0
    3.9840   -0.5250   11.8600 C   0  0  0  0  0  3  0  0  0  0  0  0
    5.4400   -0.7650   12.2930 C   0  0  0  0  0  2  0  0  0  0  0  0
    6.1720    0.5430   12.5820 C   0  0  0  0  0  2  0  0  0  0  0  0
    6.0670    1.5190   11.4150 C   0  0  0  0  0  2  0  0  0  0  0  0
    4.6120    1.7970   11.0510 C   0  0  0  0  0  2  0  0  0  0  0  0
    3.8580    0.5070   10.7280 C   0  0  0  0  0  2  0  0  0  0  0  0
    3.4400   -5.7890    7.4670 C   0  0  0  0  0  0  0  0  0  0  0  0
    4.2260   -5.7750    6.5270 O   0  0  0  0  0  0  0  0  0  0  0  0
    2.5160   -6.7830    7.6850 N   0  0  0  0  0  0  0  0  0  0  0  0
    1.9620   -6.7630    8.5370 H   0  0  0  0  0  0  0  0  0  0  0  0
    2.3680   -8.0560    6.9160 C   0  0  0  0  0  0  0  0  0  0  0  0
    1.0550   -8.7700    7.2720 C   0  0  0  0  0  2  0  0  0  0  0  0
    0.2220   -8.8240    5.9940 C   0  0  0  0  0  2  0  0  0  0  0  0
    0.8650   -7.8660    5.0030 C   0  0  0  0  0  2  0  0  0  0  0  0
    2.3250   -7.7290    5.4200 C   0  0  0  0  0  2  0  0  0  0  0  0
    3.6580   -8.8410    7.3290 C   0  0  0  0  0  0  0  0  0  0  0  0
    4.3740   -9.3150    6.4240 O   0  0  0  0  0  0  0  0  0  0  0  0
    4.1420   -9.0300    8.5830 N   0  0  0  0  0  0  0  0  0  0  0  0
    5.1060   -9.3390    8.5250 H   0  0  0  0  0  0  0  0  0  0  0  0
    3.6630   -8.9020    9.8950 C   0  0  0  0  0  0  0  0  0  0  0  0
    2.7880   -9.7820   10.5150 C   0  0  0  0  0  3  0  0  0  0  0  0
    2.4080   -9.5980   11.8520 C   0  0  0  0  0  3  0  0  0  0  0  0
    2.8950   -8.5240   12.6020 C   0  0  0  0  0  0  0  0  0  0  0  0
    3.8070   -7.6610   11.9900 C   0  0  0  0  0  3  0  0  0  0  0  0
    4.1950   -7.8550   10.6580 C   0  0  0  0  0  3  0  0  0  0  0  0
    2.5450   -8.3140   14.0130 C   0  0  0  0  0  3  0  0  0  0  0  0
    1.3090   -8.3990   14.5310 C   0  0  0  0  0  3  0  0  0  0  0  0
    1.0250   -8.1740   16.0170 C   0  0  0  0  0  0  0  0  0  0  0  0
   -0.1890   -8.3320   16.3300 O   0  0  0  0  0  0  0  0  0  0  0  0
    2.0140   -7.8660   16.7390 O   0  0  0  0  0  1  0  0  0  0  0  0
  2  6  1  0  0  0  0
  2  1  1  0  0  0  0
  3  2  2  0  0  0  0
  4  3  1  0  0  0  0
  4  5  2  0  0  0  0
  5  6  1  0  0  0  0
  7  5  1  0  0  0  0
  8  7  1  0  0  0  0
  9  8  1  0  0  0  0
 10  9  1  0  0  0  0
 10 11  1  0  0  0  0
 11  4  1  0  0  0  0
 12 19  1  0  0  0  0
 12 11  2  0  0  0  0
 13 18  1  0  0  0  0
 13 12  1  0  0  0  0
 14 13  2  0  0  0  0
 15 16  2  0  0  0  0
 15 14  1  0  0  0  0
 16 17  1  0  0  0  0
 17 18  2  0  0  0  0
 18 10  1  0  0  0  0
 19 20  1  0  0  0  0
 20 21  1  0  0  0  0
 22 21  1  0  0  0  0
 23 22  1  0  0  0  0
 24 23  1  0  0  0  0
 24 19  1  0  0  0  0
 25 27  1  0  0  0  0
 25 16  1  0  0  0  0
 26 25  2  0  0  0  0
 27 28  1  0  0  0  0
 29 30  1  0  0  0  0
 29 34  1  0  0  0  0
 29 27  1  0  0  0  0
 31 30  1  0  0  0  0
 32 33  1  0  0  0  0
 32 31  1  0  0  0  0
 33 29  1  0  0  0  0
 34 36  1  0  0  0  0
 35 34  2  0  0  0  0
 36 38  1  0  0  0  0
 37 36  1  0  0  0  0
 38 39  2  0  0  0  0
 38 43  1  0  0  0  0
 39 40  1  0  0  0  0
 40 41  2  0  0  0  0
 41 44  1  0  0  0  0
 42 41  1  0  0  0  0
 43 42  2  0  0  0  0
 44 45  2  0  0  0  0
 45 46  1  0  0  0  0
 46 47  2  0  0  0  0
 46 48  1  0  0  0  0
M  END
>  <minimizedAffinity>
-7.63478041

$$$$
