
 OpenBabel09132204463D

 48 54  0  0  0  0  0  0  0  0999 V2000
    3.2190   -8.2320    4.9550 C   0  0  0  0  0  1  0  0  0  0  0  0
    2.4920   -7.6530    6.1150 C   0  0  0  0  0  0  0  0  0  0  0  0
    2.8720   -6.5750    6.7650 N   0  0  0  0  0  0  0  0  0  0  0  0
    1.9990   -6.3190    7.7960 C   0  0  0  0  0  0  0  0  0  0  0  0
    0.9140   -7.1770    7.8800 C   0  0  0  0  0  0  0  0  0  0  0  0
    1.0490   -8.3920    6.6840 S   0  0  0  0  0  0  0  0  0  0  0  0
   -0.2880   -7.0570    8.7590 C   0  0  0  0  0  2  0  0  0  0  0  0
    0.0140   -7.1200   10.2550 C   0  0  0  0  0  2  0  0  0  0  0  0
    1.3440   -6.5180   10.7050 C   0  0  0  0  0  2  0  0  0  0  0  0
    1.7120   -5.2640   10.0640 N   0  0  0  0  0  0  0  0  0  0  0  0
    2.1700   -5.1890    8.7640 C   0  0  0  0  0  0  0  0  0  0  0  0
    2.7870   -3.9570    8.5930 C   0  0  0  0  0  0  0  0  0  0  0  0
    2.5700   -3.2290    9.8230 C   0  0  0  0  0  0  0  0  0  0  0  0
    2.8990   -1.9240   10.2610 C   0  0  0  0  0  3  0  0  0  0  0  0
    2.5470   -1.4960   11.5490 C   0  0  0  0  0  3  0  0  0  0  0  0
    1.8770   -2.3560   12.4200 C   0  0  0  0  0  0  0  0  0  0  0  0
    1.5230   -3.6480   12.0010 C   0  0  0  0  0  3  0  0  0  0  0  0
    1.8830   -4.0620   10.7070 C   0  0  0  0  0  0  0  0  0  0  0  0
    3.5010   -3.3840    7.3860 C   0  0  0  0  0  3  0  0  0  0  0  0
    4.8260   -4.1060    7.0860 C   0  0  0  0  0  2  0  0  0  0  0  0
    5.5450   -3.5030    5.8810 C   0  0  0  0  0  2  0  0  0  0  0  0
    4.6350   -3.4270    4.6590 C   0  0  0  0  0  2  0  0  0  0  0  0
    3.3610   -2.6440    4.9620 C   0  0  0  0  0  2  0  0  0  0  0  0
    2.6030   -3.2410    6.1470 C   0  0  0  0  0  2  0  0  0  0  0  0
    1.5070   -1.9690   13.8140 C   0  0  0  0  0  0  0  0  0  0  0  0
    0.6900   -1.0720   13.9890 O   0  0  0  0  0  0  0  0  0  0  0  0
    2.0820   -2.6960   14.8270 N   0  0  0  0  0  0  0  0  0  0  0  0
    2.6840   -3.4820   14.5910 H   0  0  0  0  0  0  0  0  0  0  0  0
    1.7540   -2.6250   16.2830 C   0  0  0  0  0  0  0  0  0  0  0  0
    2.8680   -3.2510   17.1360 C   0  0  0  0  0  2  0  0  0  0  0  0
    3.4310   -2.1360   18.0140 C   0  0  0  0  0  2  0  0  0  0  0  0
    2.9110   -0.8220   17.4520 C   0  0  0  0  0  2  0  0  0  0  0  0
    1.6320   -1.1520   16.6910 C   0  0  0  0  0  2  0  0  0  0  0  0
    0.3880   -3.3880   16.3500 C   0  0  0  0  0  0  0  0  0  0  0  0
   -0.6260   -2.7500   16.6980 O   0  0  0  0  0  0  0  0  0  0  0  0
    0.1500   -4.6810   16.0130 N   0  0  0  0  0  0  0  0  0  0  0  0
   -0.8500   -4.8190   15.9090 H   0  0  0  0  0  0  0  0  0  0  0  0
    0.9120   -5.8340   15.7750 C   0  0  0  0  0  0  0  0  0  0  0  0
    1.5310   -6.5990   16.7520 C   0  0  0  0  0  3  0  0  0  0  0  0
    2.2280   -7.7690   16.4180 C   0  0  0  0  0  3  0  0  0  0  0  0
    2.3240   -8.2000   15.0930 C   0  0  0  0  0  0  0  0  0  0  0  0
    1.6680   -7.4520   14.1140 C   0  0  0  0  0  3  0  0  0  0  0  0
    0.9610   -6.2900   14.4520 C   0  0  0  0  0  3  0  0  0  0  0  0
    3.0190   -9.4360   14.7060 C   0  0  0  0  0  3  0  0  0  0  0  0
    3.1700  -10.5210   15.4810 C   0  0  0  0  0  3  0  0  0  0  0  0
    3.9020  -11.7760   15.0030 C   0  0  0  0  0  0  0  0  0  0  0  0
    4.2230  -12.5620   15.9380 O   0  0  0  0  0  1  0  0  0  0  0  0
    4.0920  -11.8770   13.7590 O   0  0  0  0  0  0  0  0  0  0  0  0
  1  2  1  0  0  0  0
  2  6  1  0  0  0  0
  2  3  2  0  0  0  0
  3  4  1  0  0  0  0
  4  5  2  0  0  0  0
  4 11  1  0  0  0  0
  5  7  1  0  0  0  0
  6  5  1  0  0  0  0
  7  8  1  0  0  0  0
  8  9  1  0  0  0  0
 10  9  1  0  0  0  0
 10 18  1  0  0  0  0
 11 10  1  0  0  0  0
 12 11  2  0  0  0  0
 12 13  1  0  0  0  0
 13 14  2  0  0  0  0
 13 18  1  0  0  0  0
 14 15  1  0  0  0  0
 15 16  2  0  0  0  0
 16 25  1  0  0  0  0
 17 16  1  0  0  0  0
 18 17  2  0  0  0  0
 19 12  1  0  0  0  0
 20 19  1  0  0  0  0
 21 20  1  0  0  0  0
 22 23  1  0  0  0  0
 22 21  1  0  0  0  0
 23 24  1  0  0  0  0
 24 19  1  0  0  0  0
 25 26  2  0  0  0  0
 25 27  1  0  0  0  0
 27 29  1  0  0  0  0
 28 27  1  0  0  0  0
 29 34  1  0  0  0  0
 29 33  1  0  0  0  0
 29 30  1  0  0  0  0
 30 31  1  0  0  0  0
 32 31  1  0  0  0  0
 33 32  1  0  0  0  0
 34 35  2  0  0  0  0
 36 34  1  0  0  0  0
 37 36  1  0  0  0  0
 38 36  1  0  0  0  0
 38 39  1  0  0  0  0
 40 39  2  0  0  0  0
 41 40  1  0  0  0  0
 42 43  1  0  0  0  0
 42 41  2  0  0  0  0
 43 38  2  0  0  0  0
 44 41  1  0  0  0  0
 44 45  2  0  0  0  0
 46 45  1  0  0  0  0
 46 47  1  0  0  0  0
 48 46  2  0  0  0  0
M  END
>  <minimizedAffinity>
-7.61542082

$$$$
