
 OpenBabel09132204463D

 48 54  0  0  0  0  0  0  0  0999 V2000
    4.0060    0.8870   10.6590 C   0  0  0  0  0  1  0  0  0  0  0  0
    3.3610   -0.4450   10.8020 C   0  0  0  0  0  0  0  0  0  0  0  0
    3.1680   -1.0550   11.9510 N   0  0  0  0  0  0  0  0  0  0  0  0
    2.5720   -2.2750   11.7380 C   0  0  0  0  0  0  0  0  0  0  0  0
    2.2530   -2.5560   10.4200 C   0  0  0  0  0  0  0  0  0  0  0  0
    2.8040   -1.2880    9.4120 S   0  0  0  0  0  0  0  0  0  0  0  0
    1.4470   -3.6970    9.8900 C   0  0  0  0  0  2  0  0  0  0  0  0
    2.0550   -5.0740   10.1490 C   0  0  0  0  0  2  0  0  0  0  0  0
    2.8350   -5.2390   11.4520 C   0  0  0  0  0  2  0  0  0  0  0  0
    2.2390   -4.6100   12.6210 N   0  0  0  0  0  0  0  0  0  0  0  0
    2.2590   -3.2460   12.8350 C   0  0  0  0  0  0  0  0  0  0  0  0
    1.9740   -3.0140   14.1740 C   0  0  0  0  0  0  0  0  0  0  0  0
    1.6540   -4.3040   14.7430 C   0  0  0  0  0  0  0  0  0  0  0  0
    1.2400   -4.7340   16.0260 C   0  0  0  0  0  3  0  0  0  0  0  0
    1.0060   -6.0930   16.2790 C   0  0  0  0  0  3  0  0  0  0  0  0
    1.1870   -7.0400   15.2700 C   0  0  0  0  0  0  0  0  0  0  0  0
    1.5790   -6.6350   13.9850 C   0  0  0  0  0  3  0  0  0  0  0  0
    1.8100   -5.2700   13.7470 C   0  0  0  0  0  0  0  0  0  0  0  0
    1.9200   -1.7110   14.9470 C   0  0  0  0  0  3  0  0  0  0  0  0
    0.5660   -0.9970   14.8060 C   0  0  0  0  0  2  0  0  0  0  0  0
    0.5360    0.3240   15.5710 C   0  0  0  0  0  2  0  0  0  0  0  0
    0.9490    0.1440   17.0280 C   0  0  0  0  0  2  0  0  0  0  0  0
    2.3270   -0.5010   17.1400 C   0  0  0  0  0  2  0  0  0  0  0  0
    2.3810   -1.8410   16.4070 C   0  0  0  0  0  2  0  0  0  0  0  0
    0.9860   -8.5040   15.4900 C   0  0  0  0  0  0  0  0  0  0  0  0
   -0.1100   -8.9080   15.8600 O   0  0  0  0  0  0  0  0  0  0  0  0
    2.0530   -9.3200   15.2040 N   0  0  0  0  0  0  0  0  0  0  0  0
    2.9000   -8.9100   14.8180 H   0  0  0  0  0  0  0  0  0  0  0  0
    2.0590  -10.8150   15.1750 C   0  0  0  0  0  0  0  0  0  0  0  0
    1.3790  -11.3970   16.4240 C   0  0  0  0  0  2  0  0  0  0  0  0
    0.1600  -12.1780   15.9390 C   0  0  0  0  0  2  0  0  0  0  0  0
   -0.0750  -11.7800   14.4900 C   0  0  0  0  0  2  0  0  0  0  0  0
    1.2650  -11.2890   13.9530 C   0  0  0  0  0  2  0  0  0  0  0  0
    3.5880  -11.1360   15.0680 C   0  0  0  0  0  0  0  0  0  0  0  0
    4.1600  -11.6180   16.0670 O   0  0  0  0  0  0  0  0  0  0  0  0
    4.3820  -11.0050   13.9750 N   0  0  0  0  0  0  0  0  0  0  0  0
    5.2410  -11.5250   14.1230 H   0  0  0  0  0  0  0  0  0  0  0  0
    4.3150  -10.3600   12.7320 C   0  0  0  0  0  0  0  0  0  0  0  0
    4.1890  -10.9960   11.5060 C   0  0  0  0  0  3  0  0  0  0  0  0
    4.0760  -10.2590   10.3190 C   0  0  0  0  0  3  0  0  0  0  0  0
    4.0880   -8.8620   10.3310 C   0  0  0  0  0  0  0  0  0  0  0  0
    4.1740   -8.2210   11.5680 C   0  0  0  0  0  3  0  0  0  0  0  0
    4.2750   -8.9600   12.7540 C   0  0  0  0  0  3  0  0  0  0  0  0
    3.9410   -8.0540    9.1130 C   0  0  0  0  0  3  0  0  0  0  0  0
    3.4850   -8.5010    7.9310 C   0  0  0  0  0  3  0  0  0  0  0  0
    3.3530   -7.5930    6.7070 C   0  0  0  0  0  0  0  0  0  0  0  0
    3.7750   -8.1200    5.6390 O   0  0  0  0  0  0  0  0  0  0  0  0
    2.8470   -6.4540    6.9030 O   0  0  0  0  0  1  0  0  0  0  0  0
  1  2  1  0  0  0  0
  2  3  2  0  0  0  0
  4  3  1  0  0  0  0
  4 11  1  0  0  0  0
  5  4  2  0  0  0  0
  6  5  1  0  0  0  0
  6  2  1  0  0  0  0
  7  8  1  0  0  0  0
  7  5  1  0  0  0  0
  8  9  1  0  0  0  0
  9 10  1  0  0  0  0
 10 11  1  0  0  0  0
 10 18  1  0  0  0  0
 11 12  2  0  0  0  0
 12 13  1  0  0  0  0
 12 19  1  0  0  0  0
 13 14  1  0  0  0  0
 14 15  2  0  0  0  0
 16 25  1  0  0  0  0
 16 15  1  0  0  0  0
 17 16  2  0  0  0  0
 18 17  1  0  0  0  0
 18 13  2  0  0  0  0
 19 24  1  0  0  0  0
 20 19  1  0  0  0  0
 20 21  1  0  0  0  0
 21 22  1  0  0  0  0
 22 23  1  0  0  0  0
 24 23  1  0  0  0  0
 25 26  2  0  0  0  0
 27 25  1  0  0  0  0
 28 27  1  0  0  0  0
 29 27  1  0  0  0  0
 29 30  1  0  0  0  0
 31 30  1  0  0  0  0
 32 31  1  0  0  0  0
 33 32  1  0  0  0  0
 33 29  1  0  0  0  0
 34 29  1  0  0  0  0
 34 35  2  0  0  0  0
 36 37  1  0  0  0  0
 36 34  1  0  0  0  0
 38 43  1  0  0  0  0
 38 36  1  0  0  0  0
 39 38  2  0  0  0  0
 40 41  2  0  0  0  0
 40 39  1  0  0  0  0
 41 42  1  0  0  0  0
 42 43  2  0  0  0  0
 44 41  1  0  0  0  0
 45 44  2  0  0  0  0
 46 48  1  0  0  0  0
 46 45  1  0  0  0  0
 47 46  2  0  0  0  0
M  END
>  <minimizedAffinity>
-7.67610121

$$$$
