
 OpenBabel09132204463D

 48 54  0  0  0  0  0  0  0  0999 V2000
    1.0290   -2.5030   13.2870 C   0  0  0  0  0  1  0  0  0  0  0  0
    1.4650   -3.4340   12.2140 C   0  0  0  0  0  0  0  0  0  0  0  0
    2.0690   -3.0600   11.1080 N   0  0  0  0  0  0  0  0  0  0  0  0
    2.3160   -4.1560   10.3160 C   0  0  0  0  0  0  0  0  0  0  0  0
    1.9540   -5.3760   10.8640 C   0  0  0  0  0  0  0  0  0  0  0  0
    1.1970   -5.1240   12.3770 S   0  0  0  0  0  0  0  0  0  0  0  0
    2.2530   -6.7450   10.3440 C   0  0  0  0  0  2  0  0  0  0  0  0
    1.6350   -7.0520    8.9820 C   0  0  0  0  0  2  0  0  0  0  0  0
    1.5210   -5.8800    8.0080 C   0  0  0  0  0  2  0  0  0  0  0  0
    2.6690   -4.9870    7.9660 N   0  0  0  0  0  0  0  0  0  0  0  0
    2.9500   -4.0730    8.9620 C   0  0  0  0  0  0  0  0  0  0  0  0
    3.8440   -3.1410    8.4530 C   0  0  0  0  0  0  0  0  0  0  0  0
    4.1960   -3.6050    7.1300 C   0  0  0  0  0  0  0  0  0  0  0  0
    5.0810   -3.1380    6.1300 C   0  0  0  0  0  3  0  0  0  0  0  0
    5.2030   -3.8220    4.9120 C   0  0  0  0  0  3  0  0  0  0  0  0
    4.4450   -4.9680    4.6670 C   0  0  0  0  0  0  0  0  0  0  0  0
    3.5750   -5.4610    5.6520 C   0  0  0  0  0  3  0  0  0  0  0  0
    3.4640   -4.7640    6.8670 C   0  0  0  0  0  0  0  0  0  0  0  0
    4.4340   -1.9040    9.1010 C   0  0  0  0  0  3  0  0  0  0  0  0
    3.3830   -0.8110    9.3550 C   0  0  0  0  0  2  0  0  0  0  0  0
    3.9970    0.4370    9.9850 C   0  0  0  0  0  2  0  0  0  0  0  0
    4.7990    0.1010   11.2380 C   0  0  0  0  0  2  0  0  0  0  0  0
    5.8830   -0.9320   10.9440 C   0  0  0  0  0  2  0  0  0  0  0  0
    5.2960   -2.2060   10.3380 C   0  0  0  0  0  2  0  0  0  0  0  0
    4.5080   -5.7180    3.3780 C   0  0  0  0  0  0  0  0  0  0  0  0
    4.4840   -5.0960    2.3220 O   0  0  0  0  0  0  0  0  0  0  0  0
    4.6430   -7.0820    3.4670 N   0  0  0  0  0  0  0  0  0  0  0  0
    4.7420   -7.5100    4.3840 H   0  0  0  0  0  0  0  0  0  0  0  0
    4.8960   -8.0350    2.3430 C   0  0  0  0  0  0  0  0  0  0  0  0
    3.8670   -7.8540    1.2180 C   0  0  0  0  0  2  0  0  0  0  0  0
    4.6410   -7.4170   -0.0230 C   0  0  0  0  0  2  0  0  0  0  0  0
    6.0320   -7.0130    0.4410 C   0  0  0  0  0  2  0  0  0  0  0  0
    6.2810   -7.7470    1.7530 C   0  0  0  0  0  2  0  0  0  0  0  0
    4.8210   -9.4220    3.0650 C   0  0  0  0  0  0  0  0  0  0  0  0
    5.8220  -10.1650    3.0190 O   0  0  0  0  0  0  0  0  0  0  0  0
    3.7940   -9.9110    3.8060 N   0  0  0  0  0  0  0  0  0  0  0  0
    4.1230  -10.6980    4.3540 H   0  0  0  0  0  0  0  0  0  0  0  0
    2.4390   -9.6080    4.0020 C   0  0  0  0  0  0  0  0  0  0  0  0
    1.3750  -10.3600    3.5270 C   0  0  0  0  0  3  0  0  0  0  0  0
    0.0510  -10.0040    3.8220 C   0  0  0  0  0  3  0  0  0  0  0  0
   -0.2390   -8.8810    4.6010 C   0  0  0  0  0  0  0  0  0  0  0  0
    0.8330   -8.1460    5.1130 C   0  0  0  0  0  3  0  0  0  0  0  0
    2.1550   -8.5120    4.8270 C   0  0  0  0  0  3  0  0  0  0  0  0
   -1.6100   -8.4920    4.9580 C   0  0  0  0  0  3  0  0  0  0  0  0
   -1.9490   -7.4480    5.7310 C   0  0  0  0  0  3  0  0  0  0  0  0
   -3.4030   -7.1010    6.0520 C   0  0  0  0  0  0  0  0  0  0  0  0
   -3.6840   -5.8820    5.8750 O   0  0  0  0  0  0  0  0  0  0  0  0
   -4.1350   -8.0520    6.4440 O   0  0  0  0  0  1  0  0  0  0  0  0
  2  6  1  0  0  0  0
  2  1  1  0  0  0  0
  3  2  2  0  0  0  0
  4  5  2  0  0  0  0
  4  3  1  0  0  0  0
  5  6  1  0  0  0  0
  7  5  1  0  0  0  0
  8  7  1  0  0  0  0
  9  8  1  0  0  0  0
 10  9  1  0  0  0  0
 10 11  1  0  0  0  0
 11  4  1  0  0  0  0
 12 11  2  0  0  0  0
 12 19  1  0  0  0  0
 13 12  1  0  0  0  0
 14 13  2  0  0  0  0
 15 14  1  0  0  0  0
 16 15  2  0  0  0  0
 16 17  1  0  0  0  0
 17 18  2  0  0  0  0
 18 13  1  0  0  0  0
 18 10  1  0  0  0  0
 19 20  1  0  0  0  0
 19 24  1  0  0  0  0
 20 21  1  0  0  0  0
 21 22  1  0  0  0  0
 23 22  1  0  0  0  0
 24 23  1  0  0  0  0
 25 27  1  0  0  0  0
 25 16  1  0  0  0  0
 26 25  2  0  0  0  0
 27 28  1  0  0  0  0
 29 34  1  0  0  0  0
 29 27  1  0  0  0  0
 30 29  1  0  0  0  0
 31 32  1  0  0  0  0
 31 30  1  0  0  0  0
 32 33  1  0  0  0  0
 33 29  1  0  0  0  0
 34 36  1  0  0  0  0
 35 34  2  0  0  0  0
 36 38  1  0  0  0  0
 36 37  1  0  0  0  0
 38 43  1  0  0  0  0
 39 40  1  0  0  0  0
 39 38  2  0  0  0  0
 40 41  2  0  0  0  0
 41 44  1  0  0  0  0
 41 42  1  0  0  0  0
 43 42  2  0  0  0  0
 44 45  2  0  0  0  0
 45 46  1  0  0  0  0
 46 48  1  0  0  0  0
 47 46  2  0  0  0  0
M  END
>  <minimizedAffinity>
-7.81271362

$$$$
