
 OpenBabel09132204463D

 48 54  0  0  0  0  0  0  0  0999 V2000
    3.5510  -14.1140   15.8730 C   0  0  0  0  0  1  0  0  0  0  0  0
    2.8160  -12.8570   16.1730 C   0  0  0  0  0  0  0  0  0  0  0  0
    2.8670  -11.7730   15.4310 N   0  0  0  0  0  0  0  0  0  0  0  0
    2.0960  -10.7840   15.9940 C   0  0  0  0  0  0  0  0  0  0  0  0
    1.4050  -11.1510   17.1370 C   0  0  0  0  0  0  0  0  0  0  0  0
    1.8120  -12.7560   17.5640 S   0  0  0  0  0  0  0  0  0  0  0  0
    0.3580  -10.3760   17.8690 C   0  0  0  0  0  2  0  0  0  0  0  0
    0.8470   -9.0540   18.4580 C   0  0  0  0  0  2  0  0  0  0  0  0
    1.9220   -8.3130   17.6660 C   0  0  0  0  0  2  0  0  0  0  0  0
    1.7380   -8.3020   16.2220 N   0  0  0  0  0  0  0  0  0  0  0  0
    1.9750   -9.4040   15.4240 C   0  0  0  0  0  0  0  0  0  0  0  0
    2.0880   -8.9710   14.1100 C   0  0  0  0  0  0  0  0  0  0  0  0
    1.7820   -7.5580   14.1290 C   0  0  0  0  0  0  0  0  0  0  0  0
    1.6780   -6.5640   13.1260 C   0  0  0  0  0  3  0  0  0  0  0  0
    1.3620   -5.2410   13.4670 C   0  0  0  0  0  3  0  0  0  0  0  0
    1.1540   -4.8860   14.8000 C   0  0  0  0  0  0  0  0  0  0  0  0
    1.2320   -5.8580   15.8090 C   0  0  0  0  0  3  0  0  0  0  0  0
    1.5510   -7.1800   15.4520 C   0  0  0  0  0  0  0  0  0  0  0  0
    2.3970   -9.7530   12.8500 C   0  0  0  0  0  3  0  0  0  0  0  0
    1.2500   -9.7020   11.8270 C   0  0  0  0  0  2  0  0  0  0  0  0
    1.5660  -10.5140   10.5730 C   0  0  0  0  0  2  0  0  0  0  0  0
    2.9060  -10.1150    9.9640 C   0  0  0  0  0  2  0  0  0  0  0  0
    4.0390  -10.2430   10.9770 C   0  0  0  0  0  2  0  0  0  0  0  0
    3.7640   -9.4170   12.2340 C   0  0  0  0  0  2  0  0  0  0  0  0
    0.8470   -3.4880   15.2260 C   0  0  0  0  0  0  0  0  0  0  0  0
   -0.0910   -2.8960   14.7060 O   0  0  0  0  0  0  0  0  0  0  0  0
    1.6240   -2.9680   16.2330 N   0  0  0  0  0  0  0  0  0  0  0  0
    2.3270   -3.5590   16.6700 H   0  0  0  0  0  0  0  0  0  0  0  0
    1.4170   -1.6730   16.9500 C   0  0  0  0  0  0  0  0  0  0  0  0
    0.2480   -0.8830   16.3440 C   0  0  0  0  0  2  0  0  0  0  0  0
   -0.8090   -0.7500   17.4370 C   0  0  0  0  0  2  0  0  0  0  0  0
   -0.4330   -1.7280   18.5400 C   0  0  0  0  0  2  0  0  0  0  0  0
    1.0670   -1.9680   18.4120 C   0  0  0  0  0  2  0  0  0  0  0  0
    2.8130   -0.9810   16.7870 C   0  0  0  0  0  0  0  0  0  0  0  0
    3.2760   -0.3550   17.7620 O   0  0  0  0  0  0  0  0  0  0  0  0
    3.6330   -1.0250   15.7070 N   0  0  0  0  0  0  0  0  0  0  0  0
    4.5600   -0.7140   15.9790 H   0  0  0  0  0  0  0  0  0  0  0  0
    3.5290   -1.3850   14.3560 C   0  0  0  0  0  0  0  0  0  0  0  0
    4.1760   -2.4590   13.7620 C   0  0  0  0  0  3  0  0  0  0  0  0
    3.9640   -2.7710   12.4120 C   0  0  0  0  0  3  0  0  0  0  0  0
    3.0990   -2.0120   11.6210 C   0  0  0  0  0  0  0  0  0  0  0  0
    2.4170   -0.9550   12.2280 C   0  0  0  0  0  3  0  0  0  0  0  0
    2.6210   -0.6530   13.5810 C   0  0  0  0  0  3  0  0  0  0  0  0
    2.8270   -2.3250   10.2110 C   0  0  0  0  0  3  0  0  0  0  0  0
    2.6200   -1.4240    9.2380 C   0  0  0  0  0  3  0  0  0  0  0  0
    2.3500   -1.8280    7.7880 C   0  0  0  0  0  0  0  0  0  0  0  0
    2.5710   -3.0500    7.5540 O   0  0  0  0  0  1  0  0  0  0  0  0
    1.9470   -0.9160    7.0150 O   0  0  0  0  0  0  0  0  0  0  0  0
  1  2  1  0  0  0  0
  2  6  1  0  0  0  0
  3  4  1  0  0  0  0
  3  2  2  0  0  0  0
  4  5  2  0  0  0  0
  5  6  1  0  0  0  0
  5  7  1  0  0  0  0
  7  8  1  0  0  0  0
  9  8  1  0  0  0  0
 10  9  1  0  0  0  0
 11  4  1  0  0  0  0
 11 10  1  0  0  0  0
 12 13  1  0  0  0  0
 12 11  2  0  0  0  0
 13 18  1  0  0  0  0
 14 15  1  0  0  0  0
 14 13  2  0  0  0  0
 15 16  2  0  0  0  0
 16 25  1  0  0  0  0
 16 17  1  0  0  0  0
 18 17  2  0  0  0  0
 18 10  1  0  0  0  0
 19 12  1  0  0  0  0
 20 19  1  0  0  0  0
 21 20  1  0  0  0  0
 22 21  1  0  0  0  0
 22 23  1  0  0  0  0
 23 24  1  0  0  0  0
 24 19  1  0  0  0  0
 25 27  1  0  0  0  0
 26 25  2  0  0  0  0
 27 28  1  0  0  0  0
 27 29  1  0  0  0  0
 29 33  1  0  0  0  0
 30 29  1  0  0  0  0
 30 31  1  0  0  0  0
 31 32  1  0  0  0  0
 33 32  1  0  0  0  0
 34 29  1  0  0  0  0
 34 35  2  0  0  0  0
 36 37  1  0  0  0  0
 36 34  1  0  0  0  0
 38 36  1  0  0  0  0
 39 38  1  0  0  0  0
 40 39  2  0  0  0  0
 41 42  2  0  0  0  0
 41 40  1  0  0  0  0
 42 43  1  0  0  0  0
 43 38  2  0  0  0  0
 44 41  1  0  0  0  0
 45 44  2  0  0  0  0
 46 45  1  0  0  0  0
 47 46  1  0  0  0  0
 48 46  2  0  0  0  0
M  END
>  <minimizedAffinity>
-7.49532032

$$$$
