
 OpenBabel09122223073D

 34 38  0  0  0  0  0  0  0  0999 V2000
    8.0780   -4.9990   -0.6240 C   0  0  0  0  0  0  0  0  0  0  0  0
    8.3060   -5.6310    0.6010 C   0  0  0  0  0  3  0  0  0  0  0  0
    7.3200   -6.4340    1.1840 C   0  0  0  0  0  3  0  0  0  0  0  0
    6.0870   -6.6040    0.5470 C   0  0  0  0  0  0  0  0  0  0  0  0
    5.8830   -6.0160   -0.7080 C   0  0  0  0  0  3  0  0  0  0  0  0
    6.8740   -5.2180   -1.2930 C   0  0  0  0  0  3  0  0  0  0  0  0
    5.0390   -7.4260    1.1430 C   0  0  0  0  0  0  0  0  0  0  0  0
    4.5380   -8.4900    0.5430 N   0  0  0  0  0  0  0  0  0  0  0  0
    3.6120   -9.0260    1.3990 C   0  0  0  0  0  0  0  0  0  0  0  0
    2.8140  -10.1740    1.2610 C   0  0  0  0  0  3  0  0  0  0  0  0
    1.9260  -10.5400    2.2940 C   0  0  0  0  0  0  0  0  0  0  0  0
    1.8580   -9.7350    3.4440 C   0  0  0  0  0  3  0  0  0  0  0  0
    2.6440   -8.5870    3.5990 C   0  0  0  0  0  3  0  0  0  0  0  0
    3.5150   -8.2580    2.5530 C   0  0  0  0  0  0  0  0  0  0  0  0
    4.4180   -7.2210    2.3620 N   0  0  0  0  0  0  0  0  0  0  0  0
    4.6000   -6.1720    3.3430 C   0  0  0  0  0  3  0  0  0  0  0  0
    4.3080   -4.7690    2.8070 C   0  0  0  0  0  2  0  0  0  0  0  0
    4.1720   -3.8850    4.0490 C   0  0  0  0  0  2  0  0  0  0  0  0
    4.1450   -4.8280    5.2520 C   0  0  0  0  0  2  0  0  0  0  0  0
    3.8380   -6.2030    4.6690 C   0  0  0  0  0  2  0  0  0  0  0  0
    1.0590  -11.7790    2.1740 C   0  0  0  0  0  0  0  0  0  0  0  0
    1.4010  -12.6530    1.3170 O   0  0  0  0  0  0  0  0  0  0  0  0
    0.0490  -11.8540    2.9450 O   0  0  0  0  0  1  0  0  0  0  0  0
    9.1140   -4.2320   -1.0800 O   0  0  0  0  0  0  0  0  0  0  0  0
   10.0650   -3.7660   -0.1160 C   0  0  0  0  0  2  0  0  0  0  0  0
    9.5160    0.3140    1.2680 C   0  0  0  0  0  0  0  0  0  0  0  0
   10.0170    0.0530   -0.0160 C   0  0  0  0  0  3  0  0  0  0  0  0
   10.1690   -1.2590   -0.4790 C   0  0  0  0  0  3  0  0  0  0  0  0
    9.8150   -2.3470    0.3290 C   0  0  0  0  0  0  0  0  0  0  0  0
    9.3060   -2.0920    1.6110 C   0  0  0  0  0  3  0  0  0  0  0  0
    9.1540   -0.7790    2.0690 C   0  0  0  0  0  3  0  0  0  0  0  0
    9.1950    1.8850    3.0330 O   0  0  0  0  0  1  0  0  0  0  0  0
    9.3870    1.7360    1.7850 C   0  0  0  0  0  0  0  0  0  0  0  0
    9.4980    2.6770    0.9360 O   0  0  0  0  0  0  0  0  0  0  0  0
  1  2  1  0  0  0  0
  2  3  2  0  0  0  0
  4  7  1  0  0  0  0
  4  3  1  0  0  0  0
  5  4  2  0  0  0  0
  6  5  1  0  0  0  0
  6  1  2  0  0  0  0
  7 15  1  0  0  0  0
  8  7  2  0  0  0  0
  8  9  1  0  0  0  0
  9 14  1  0  0  0  0
 10  9  2  0  0  0  0
 10 11  1  0  0  0  0
 11 12  2  0  0  0  0
 12 13  1  0  0  0  0
 14 13  2  0  0  0  0
 15 14  1  0  0  0  0
 15 16  1  0  0  0  0
 16 20  1  0  0  0  0
 17 16  1  0  0  0  0
 17 18  1  0  0  0  0
 18 19  1  0  0  0  0
 20 19  1  0  0  0  0
 21 11  1  0  0  0  0
 21 23  1  0  0  0  0
 22 21  2  0  0  0  0
 24  1  1  0  0  0  0
 24 25  1  0  0  0  0
 25 29  1  0  0  0  0
 26 33  1  0  0  0  0
 26 31  1  0  0  0  0
 27 26  2  0  0  0  0
 28 27  1  0  0  0  0
 28 29  2  0  0  0  0
 29 30  1  0  0  0  0
 30 31  2  0  0  0  0
 33 32  1  0  0  0  0
 34 33  2  0  0  0  0
M  END
>  <minimizedAffinity>
-9.68254662

$$$$

 OpenBabel09122223073D

 34 38  0  0  0  0  0  0  0  0999 V2000
    8.1670   -4.8890   -0.6220 C   0  0  0  0  0  0  0  0  0  0  0  0
    8.3620   -5.4830    0.6280 C   0  0  0  0  0  3  0  0  0  0  0  0
    7.3760   -6.2990    1.1910 C   0  0  0  0  0  3  0  0  0  0  0  0
    6.1760   -6.5230    0.5090 C   0  0  0  0  0  0  0  0  0  0  0  0
    6.0090   -5.9730   -0.7690 C   0  0  0  0  0  3  0  0  0  0  0  0
    7.0000   -5.1620   -1.3330 C   0  0  0  0  0  3  0  0  0  0  0  0
    5.1280   -7.3600    1.0830 C   0  0  0  0  0  0  0  0  0  0  0  0
    4.6440   -8.4220    0.4660 N   0  0  0  0  0  0  0  0  0  0  0  0
    3.7120   -8.9750    1.3050 C   0  0  0  0  0  0  0  0  0  0  0  0
    2.9270  -10.1290    1.1440 C   0  0  0  0  0  3  0  0  0  0  0  0
    2.0290  -10.5130    2.1620 C   0  0  0  0  0  0  0  0  0  0  0  0
    1.9400   -9.7210    3.3200 C   0  0  0  0  0  3  0  0  0  0  0  0
    2.7140   -8.5680    3.4970 C   0  0  0  0  0  3  0  0  0  0  0  0
    3.5940   -8.2200    2.4650 C   0  0  0  0  0  0  0  0  0  0  0  0
    4.4900   -7.1730    2.2960 N   0  0  0  0  0  0  0  0  0  0  0  0
    4.6500   -6.1340    3.2900 C   0  0  0  0  0  3  0  0  0  0  0  0
    4.3140   -4.7320    2.7770 C   0  0  0  0  0  2  0  0  0  0  0  0
    4.1630   -3.8690    4.0320 C   0  0  0  0  0  2  0  0  0  0  0  0
    4.1730   -4.8290    5.2210 C   0  0  0  0  0  2  0  0  0  0  0  0
    3.9010   -6.2050    4.6220 C   0  0  0  0  0  2  0  0  0  0  0  0
    1.1750  -11.7580    2.0180 C   0  0  0  0  0  0  0  0  0  0  0  0
    0.1830  -11.8840    2.8020 O   0  0  0  0  0  1  0  0  0  0  0  0
    1.5140  -12.5900    1.1150 O   0  0  0  0  0  0  0  0  0  0  0  0
    9.1990   -4.1040   -1.0560 O   0  0  0  0  0  0  0  0  0  0  0  0
    9.8810   -3.3100   -0.0770 C   0  0  0  0  0  2  0  0  0  0  0  0
   11.5610    0.4290   -1.5130 C   0  0  0  0  0  0  0  0  0  0  0  0
   12.0740   -0.8020   -1.9470 C   0  0  0  0  0  3  0  0  0  0  0  0
   11.5190   -2.0110   -1.5110 C   0  0  0  0  0  3  0  0  0  0  0  0
   10.4270   -2.0190   -0.6340 C   0  0  0  0  0  0  0  0  0  0  0  0
    9.9040   -0.7920   -0.2030 C   0  0  0  0  0  3  0  0  0  0  0  0
   10.4610    0.4140   -0.6420 C   0  0  0  0  0  3  0  0  0  0  0  0
   12.1280    2.7160   -1.1430 O   0  0  0  0  0  1  0  0  0  0  0  0
   12.1880    1.7390   -1.9560 C   0  0  0  0  0  0  0  0  0  0  0  0
   12.7440    1.7620   -3.1000 O   0  0  0  0  0  0  0  0  0  0  0  0
  1  2  1  0  0  0  0
  2  3  2  0  0  0  0
  4  7  1  0  0  0  0
  4  3  1  0  0  0  0
  5  4  2  0  0  0  0
  6  5  1  0  0  0  0
  6  1  2  0  0  0  0
  7 15  1  0  0  0  0
  8  7  2  0  0  0  0
  8  9  1  0  0  0  0
  9 14  1  0  0  0  0
 10  9  2  0  0  0  0
 10 11  1  0  0  0  0
 11 12  2  0  0  0  0
 12 13  1  0  0  0  0
 14 13  2  0  0  0  0
 15 14  1  0  0  0  0
 15 16  1  0  0  0  0
 16 20  1  0  0  0  0
 17 16  1  0  0  0  0
 17 18  1  0  0  0  0
 18 19  1  0  0  0  0
 20 19  1  0  0  0  0
 21 11  1  0  0  0  0
 21 22  1  0  0  0  0
 23 21  2  0  0  0  0
 24  1  1  0  0  0  0
 24 25  1  0  0  0  0
 26 31  1  0  0  0  0
 27 26  2  0  0  0  0
 27 28  1  0  0  0  0
 28 29  2  0  0  0  0
 29 30  1  0  0  0  0
 29 25  1  0  0  0  0
 31 30  2  0  0  0  0
 33 26  1  0  0  0  0
 33 32  1  0  0  0  0
 34 33  2  0  0  0  0
M  END
>  <minimizedAffinity>
-9.54463196

$$$$

 OpenBabel09122223073D

 34 38  0  0  0  0  0  0  0  0999 V2000
    4.7200  -11.1880    2.7110 C   0  0  0  0  0  0  0  0  0  0  0  0
    5.7610  -10.3590    3.1370 C   0  0  0  0  0  3  0  0  0  0  0  0
    5.5120   -9.0280    3.4900 C   0  0  0  0  0  3  0  0  0  0  0  0
    4.2160   -8.5120    3.4130 C   0  0  0  0  0  0  0  0  0  0  0  0
    3.1670   -9.3620    3.0420 C   0  0  0  0  0  3  0  0  0  0  0  0
    3.4160  -10.6950    2.6940 C   0  0  0  0  0  3  0  0  0  0  0  0
    3.9360   -7.1240    3.7650 C   0  0  0  0  0  0  0  0  0  0  0  0
    3.3890   -6.7740    4.9140 N   0  0  0  0  0  0  0  0  0  0  0  0
    3.3070   -5.4060    4.9120 C   0  0  0  0  0  0  0  0  0  0  0  0
    2.8320   -4.5300    5.9020 C   0  0  0  0  0  3  0  0  0  0  0  0
    2.8540   -3.1380    5.6770 C   0  0  0  0  0  0  0  0  0  0  0  0
    3.3540   -2.6590    4.4530 C   0  0  0  0  0  3  0  0  0  0  0  0
    3.8310   -3.5170    3.4550 C   0  0  0  0  0  3  0  0  0  0  0  0
    3.7920   -4.8920    3.7160 C   0  0  0  0  0  0  0  0  0  0  0  0
    4.1690   -6.0080    2.9800 N   0  0  0  0  0  0  0  0  0  0  0  0
    4.7080   -5.8970    1.6420 C   0  0  0  0  0  3  0  0  0  0  0  0
    6.2360   -5.8290    1.5970 C   0  0  0  0  0  2  0  0  0  0  0  0
    6.6080   -6.1100    0.1390 C   0  0  0  0  0  2  0  0  0  0  0  0
    5.3250   -6.5670   -0.5550 C   0  0  0  0  0  2  0  0  0  0  0  0
    4.3750   -6.9430    0.5770 C   0  0  0  0  0  2  0  0  0  0  0  0
    2.3550   -2.1700    6.7320 C   0  0  0  0  0  0  0  0  0  0  0  0
    2.3560   -2.5650    7.9390 O   0  0  0  0  0  1  0  0  0  0  0  0
    1.9710   -1.0240    6.3290 O   0  0  0  0  0  0  0  0  0  0  0  0
    5.0940  -12.4620    2.3810 O   0  0  0  0  0  0  0  0  0  0  0  0
    4.4370  -13.5390    3.0590 C   0  0  0  0  0  2  0  0  0  0  0  0
    5.0870  -13.2890    7.3460 C   0  0  0  0  0  0  0  0  0  0  0  0
    3.7900  -13.2650    6.8150 C   0  0  0  0  0  3  0  0  0  0  0  0
    3.5710  -13.3740    5.4370 C   0  0  0  0  0  3  0  0  0  0  0  0
    4.6480  -13.5190    4.5530 C   0  0  0  0  0  0  0  0  0  0  0  0
    5.9470  -13.5520    5.0790 C   0  0  0  0  0  3  0  0  0  0  0  0
    6.1610  -13.4440    6.4570 C   0  0  0  0  0  3  0  0  0  0  0  0
    6.3500  -12.4670    9.1950 O   0  0  0  0  0  0  0  0  0  0  0  0
    5.3260  -13.1320    8.8380 C   0  0  0  0  0  0  0  0  0  0  0  0
    4.4760  -13.6590    9.6230 O   0  0  0  0  0  1  0  0  0  0  0  0
  1  2  1  0  0  0  0
  2  3  2  0  0  0  0
  4  3  1  0  0  0  0
  4  7  1  0  0  0  0
  5  4  2  0  0  0  0
  6  1  2  0  0  0  0
  6  5  1  0  0  0  0
  7  8  2  0  0  0  0
  9  8  1  0  0  0  0
  9 10  1  0  0  0  0
 11 10  2  0  0  0  0
 11 21  1  0  0  0  0
 12 11  1  0  0  0  0
 13 14  1  0  0  0  0
 13 12  2  0  0  0  0
 14  9  2  0  0  0  0
 15 14  1  0  0  0  0
 15  7  1  0  0  0  0
 16 15  1  0  0  0  0
 17 16  1  0  0  0  0
 18 17  1  0  0  0  0
 19 18  1  0  0  0  0
 19 20  1  0  0  0  0
 20 16  1  0  0  0  0
 21 22  1  0  0  0  0
 23 21  2  0  0  0  0
 24  1  1  0  0  0  0
 24 25  1  0  0  0  0
 25 29  1  0  0  0  0
 26 33  1  0  0  0  0
 27 26  1  0  0  0  0
 28 27  2  0  0  0  0
 29 30  2  0  0  0  0
 29 28  1  0  0  0  0
 30 31  1  0  0  0  0
 31 26  2  0  0  0  0
 33 32  2  0  0  0  0
 33 34  1  0  0  0  0
M  END
>  <minimizedAffinity>
-8.66853523

$$$$

 OpenBabel09122223073D

 34 38  0  0  0  0  0  0  0  0999 V2000
    4.2660   -7.8370    2.6210 C   0  0  0  0  0  0  0  0  0  0  0  0
    5.2100   -8.8670    2.5660 C   0  0  0  0  0  3  0  0  0  0  0  0
    5.2440   -9.8550    3.5540 C   0  0  0  0  0  3  0  0  0  0  0  0
    4.3370   -9.8170    4.6170 C   0  0  0  0  0  0  0  0  0  0  0  0
    3.3560   -8.8180    4.6380 C   0  0  0  0  0  3  0  0  0  0  0  0
    3.3180   -7.8320    3.6440 C   0  0  0  0  0  3  0  0  0  0  0  0
    4.3630  -10.8310    5.6670 C   0  0  0  0  0  0  0  0  0  0  0  0
    5.0020  -10.6600    6.8090 N   0  0  0  0  0  0  0  0  0  0  0  0
    4.7830  -11.7890    7.5550 C   0  0  0  0  0  0  0  0  0  0  0  0
    5.2130  -12.1080    8.8540 C   0  0  0  0  0  3  0  0  0  0  0  0
    4.8530  -13.3450    9.4280 C   0  0  0  0  0  0  0  0  0  0  0  0
    4.0690  -14.2360    8.6760 C   0  0  0  0  0  3  0  0  0  0  0  0
    3.6320  -13.9360    7.3810 C   0  0  0  0  0  3  0  0  0  0  0  0
    4.0100  -12.6980    6.8450 C   0  0  0  0  0  0  0  0  0  0  0  0
    3.7690  -12.0800    5.6260 N   0  0  0  0  0  0  0  0  0  0  0  0
    3.0070  -12.7240    4.5770 C   0  0  0  0  0  3  0  0  0  0  0  0
    1.7400  -11.9630    4.1800 C   0  0  0  0  0  2  0  0  0  0  0  0
    1.3100  -12.5690    2.8420 C   0  0  0  0  0  2  0  0  0  0  0  0
    2.4550  -13.4750    2.3890 C   0  0  0  0  0  2  0  0  0  0  0  0
    3.6540  -13.0490    3.2300 C   0  0  0  0  0  2  0  0  0  0  0  0
    5.2960  -13.7110   10.8320 C   0  0  0  0  0  0  0  0  0  0  0  0
    6.4930  -13.4350   11.1600 O   0  0  0  0  0  0  0  0  0  0  0  0
    4.4330  -14.2670   11.5840 O   0  0  0  0  0  1  0  0  0  0  0  0
    4.3440   -6.9260    1.6040 O   0  0  0  0  0  0  0  0  0  0  0  0
    5.2010   -7.2420    0.5000 C   0  0  0  0  0  2  0  0  0  0  0  0
    8.4950   -4.4730   -0.0910 C   0  0  0  0  0  0  0  0  0  0  0  0
    7.7510   -4.9470   -1.1820 C   0  0  0  0  0  3  0  0  0  0  0  0
    6.6710   -5.8170   -0.9960 C   0  0  0  0  0  3  0  0  0  0  0  0
    6.2990   -6.2290    0.2900 C   0  0  0  0  0  0  0  0  0  0  0  0
    7.0330   -5.7520    1.3850 C   0  0  0  0  0  3  0  0  0  0  0  0
    8.1120   -4.8810    1.1960 C   0  0  0  0  0  3  0  0  0  0  0  0
   10.4860   -3.8490   -1.2460 O   0  0  0  0  0  0  0  0  0  0  0  0
    9.6910   -3.5600   -0.2960 C   0  0  0  0  0  0  0  0  0  0  0  0
    9.8020   -2.5610    0.4840 O   0  0  0  0  0  1  0  0  0  0  0  0
  1  6  1  0  0  0  0
  2  1  2  0  0  0  0
  2  3  1  0  0  0  0
  3  4  2  0  0  0  0
  4  5  1  0  0  0  0
  4  7  1  0  0  0  0
  6  5  2  0  0  0  0
  7  8  2  0  0  0  0
  8  9  1  0  0  0  0
  9 10  1  0  0  0  0
 10 11  2  0  0  0  0
 11 21  1  0  0  0  0
 12 11  1  0  0  0  0
 13 12  2  0  0  0  0
 14 13  1  0  0  0  0
 14  9  2  0  0  0  0
 15  7  1  0  0  0  0
 15 14  1  0  0  0  0
 16 15  1  0  0  0  0
 17 16  1  0  0  0  0
 18 17  1  0  0  0  0
 19 18  1  0  0  0  0
 19 20  1  0  0  0  0
 20 16  1  0  0  0  0
 21 22  2  0  0  0  0
 21 23  1  0  0  0  0
 24  1  1  0  0  0  0
 25 24  1  0  0  0  0
 26 31  1  0  0  0  0
 27 28  1  0  0  0  0
 27 26  2  0  0  0  0
 28 29  2  0  0  0  0
 29 25  1  0  0  0  0
 29 30  1  0  0  0  0
 31 30  2  0  0  0  0
 32 33  2  0  0  0  0
 33 26  1  0  0  0  0
 33 34  1  0  0  0  0
M  END
>  <minimizedAffinity>
-8.52070332

$$$$

 OpenBabel09122223073D

 34 38  0  0  0  0  0  0  0  0999 V2000
    3.4620   -1.3640    7.6730 C   0  0  0  0  0  0  0  0  0  0  0  0
    4.7420   -1.8570    7.4070 C   0  0  0  0  0  3  0  0  0  0  0  0
    4.9510   -2.7810    6.3780 C   0  0  0  0  0  3  0  0  0  0  0  0
    3.8740   -3.2290    5.6080 C   0  0  0  0  0  0  0  0  0  0  0  0
    2.6020   -2.6890    5.8400 C   0  0  0  0  0  3  0  0  0  0  0  0
    2.3960   -1.7600    6.8660 C   0  0  0  0  0  3  0  0  0  0  0  0
    4.0660   -4.2020    4.5380 C   0  0  0  0  0  0  0  0  0  0  0  0
    4.5940   -3.8850    3.3700 N   0  0  0  0  0  0  0  0  0  0  0  0
    4.6510   -5.0410    2.6370 C   0  0  0  0  0  0  0  0  0  0  0  0
    5.1500   -5.2640    1.3420 C   0  0  0  0  0  3  0  0  0  0  0  0
    5.1100   -6.5600    0.7880 C   0  0  0  0  0  0  0  0  0  0  0  0
    4.5620   -7.6050    1.5520 C   0  0  0  0  0  3  0  0  0  0  0  0
    4.0600   -7.4020    2.8430 C   0  0  0  0  0  3  0  0  0  0  0  0
    4.1180   -6.1020    3.3580 C   0  0  0  0  0  0  0  0  0  0  0  0
    3.7230   -5.5420    4.5660 N   0  0  0  0  0  0  0  0  0  0  0  0
    3.0870   -6.3270    5.6030 C   0  0  0  0  0  3  0  0  0  0  0  0
    3.6760   -6.1020    6.9970 C   0  0  0  0  0  2  0  0  0  0  0  0
    2.6490   -6.6890    7.9670 C   0  0  0  0  0  2  0  0  0  0  0  0
    1.4040   -7.0090    7.1390 C   0  0  0  0  0  2  0  0  0  0  0  0
    1.5790   -6.2260    5.8430 C   0  0  0  0  0  2  0  0  0  0  0  0
    5.6500   -6.8300   -0.6030 C   0  0  0  0  0  0  0  0  0  0  0  0
    5.3780   -7.9530   -1.1310 O   0  0  0  0  0  1  0  0  0  0  0  0
    6.3360   -5.9040   -1.1460 O   0  0  0  0  0  0  0  0  0  0  0  0
    3.3880   -0.4780    8.7120 O   0  0  0  0  0  0  0  0  0  0  0  0
    3.8270   -0.9310    9.9980 C   0  0  0  0  0  2  0  0  0  0  0  0
    1.9510   -4.7090   11.0330 C   0  0  0  0  0  0  0  0  0  0  0  0
    3.3480   -4.5800   11.0220 C   0  0  0  0  0  3  0  0  0  0  0  0
    3.9590   -3.3580   10.7180 C   0  0  0  0  0  3  0  0  0  0  0  0
    3.1860   -2.2280   10.4240 C   0  0  0  0  0  0  0  0  0  0  0  0
    1.7890   -2.3480   10.4400 C   0  0  0  0  0  3  0  0  0  0  0  0
    1.1820   -3.5710   10.7470 C   0  0  0  0  0  3  0  0  0  0  0  0
    0.0180   -6.0750   11.3190 O   0  0  0  0  0  0  0  0  0  0  0  0
    1.2900   -6.0440   11.3260 C   0  0  0  0  0  0  0  0  0  0  0  0
    2.0530   -7.0390   11.5380 O   0  0  0  0  0  1  0  0  0  0  0  0
  1 24  1  0  0  0  0
  2  1  1  0  0  0  0
  3  2  2  0  0  0  0
  4  5  2  0  0  0  0
  4  3  1  0  0  0  0
  5  6  1  0  0  0  0
  6  1  2  0  0  0  0
  7 15  1  0  0  0  0
  7  4  1  0  0  0  0
  8  7  2  0  0  0  0
  9 14  1  0  0  0  0
  9  8  1  0  0  0  0
 10  9  2  0  0  0  0
 11 10  1  0  0  0  0
 11 12  2  0  0  0  0
 12 13  1  0  0  0  0
 13 14  2  0  0  0  0
 14 15  1  0  0  0  0
 15 16  1  0  0  0  0
 16 20  1  0  0  0  0
 16 17  1  0  0  0  0
 17 18  1  0  0  0  0
 19 18  1  0  0  0  0
 20 19  1  0  0  0  0
 21 11  1  0  0  0  0
 22 21  1  0  0  0  0
 23 21  2  0  0  0  0
 24 25  1  0  0  0  0
 25 29  1  0  0  0  0
 26 33  1  0  0  0  0
 27 26  1  0  0  0  0
 28 27  2  0  0  0  0
 29 30  2  0  0  0  0
 29 28  1  0  0  0  0
 30 31  1  0  0  0  0
 31 26  2  0  0  0  0
 32 33  2  0  0  0  0
 33 34  1  0  0  0  0
M  END
>  <minimizedAffinity>
-8.38942432

$$$$

 OpenBabel09122223073D

 34 38  0  0  0  0  0  0  0  0999 V2000
   10.6830   -0.5310    5.4640 C   0  0  0  0  0  0  0  0  0  0  0  0
   10.1020    0.0090    4.3140 C   0  0  0  0  0  3  0  0  0  0  0  0
    9.5160   -0.8220    3.3540 C   0  0  0  0  0  3  0  0  0  0  0  0
    9.5150   -2.2090    3.5320 C   0  0  0  0  0  0  0  0  0  0  0  0
   10.0460   -2.7420    4.7130 C   0  0  0  0  0  3  0  0  0  0  0  0
   10.6270   -1.9080    5.6770 C   0  0  0  0  0  3  0  0  0  0  0  0
    8.9200   -3.0950    2.5380 C   0  0  0  0  0  0  0  0  0  0  0  0
    7.8850   -3.8720    2.8000 N   0  0  0  0  0  0  0  0  0  0  0  0
    7.5820   -4.5300    1.6370 C   0  0  0  0  0  0  0  0  0  0  0  0
    6.5550   -5.4490    1.3630 C   0  0  0  0  0  3  0  0  0  0  0  0
    6.4310   -5.9980    0.0700 C   0  0  0  0  0  0  0  0  0  0  0  0
    7.3510   -5.6100   -0.9200 C   0  0  0  0  0  3  0  0  0  0  0  0
    8.3810   -4.6970   -0.6650 C   0  0  0  0  0  3  0  0  0  0  0  0
    8.4700   -4.1730    0.6300 C   0  0  0  0  0  0  0  0  0  0  0  0
    9.3390   -3.2710    1.2300 N   0  0  0  0  0  0  0  0  0  0  0  0
   10.4440   -2.6770    0.5100 C   0  0  0  0  0  3  0  0  0  0  0  0
   11.4900   -3.6900    0.0390 C   0  0  0  0  0  2  0  0  0  0  0  0
   12.3290   -2.9460   -1.0020 C   0  0  0  0  0  2  0  0  0  0  0  0
   11.6070   -1.6280   -1.2790 C   0  0  0  0  0  2  0  0  0  0  0  0
   10.1960   -1.8270   -0.7370 C   0  0  0  0  0  2  0  0  0  0  0  0
    5.3270   -6.9850   -0.2550 C   0  0  0  0  0  0  0  0  0  0  0  0
    5.5000   -7.7530   -1.2530 O   0  0  0  0  0  0  0  0  0  0  0  0
    4.3020   -6.9750    0.5010 O   0  0  0  0  0  1  0  0  0  0  0  0
   11.2340    0.3840    6.3180 O   0  0  0  0  0  0  0  0  0  0  0  0
   11.0700    1.7700    5.9960 C   0  0  0  0  0  2  0  0  0  0  0  0
    8.7790    3.9100    9.0020 C   0  0  0  0  0  0  0  0  0  0  0  0
    9.4300    4.6010    7.9700 C   0  0  0  0  0  3  0  0  0  0  0  0
   10.1460    3.9160    6.9810 C   0  0  0  0  0  3  0  0  0  0  0  0
   10.2220    2.5170    6.9950 C   0  0  0  0  0  0  0  0  0  0  0  0
    9.5660    1.8200    8.0190 C   0  0  0  0  0  3  0  0  0  0  0  0
    8.8490    2.5090    9.0040 C   0  0  0  0  0  3  0  0  0  0  0  0
    8.0020    5.9250   10.0140 O   0  0  0  0  0  0  0  0  0  0  0  0
    8.0340    4.6550   10.0950 C   0  0  0  0  0  0  0  0  0  0  0  0
    7.4800    3.9580   11.0030 O   0  0  0  0  0  1  0  0  0  0  0  0
  1  6  1  0  0  0  0
  1 24  1  0  0  0  0
  2  1  2  0  0  0  0
  3  4  2  0  0  0  0
  3  2  1  0  0  0  0
  4  5  1  0  0  0  0
  5  6  2  0  0  0  0
  7  8  2  0  0  0  0
  7  4  1  0  0  0  0
  9  8  1  0  0  0  0
 10  9  1  0  0  0  0
 11 10  2  0  0  0  0
 12 13  2  0  0  0  0
 12 11  1  0  0  0  0
 13 14  1  0  0  0  0
 14 15  1  0  0  0  0
 14  9  2  0  0  0  0
 15  7  1  0  0  0  0
 16 15  1  0  0  0  0
 17 16  1  0  0  0  0
 18 17  1  0  0  0  0
 19 18  1  0  0  0  0
 19 20  1  0  0  0  0
 20 16  1  0  0  0  0
 21 11  1  0  0  0  0
 21 23  1  0  0  0  0
 22 21  2  0  0  0  0
 25 24  1  0  0  0  0
 25 29  1  0  0  0  0
 26 31  1  0  0  0  0
 26 33  1  0  0  0  0
 27 26  2  0  0  0  0
 28 29  2  0  0  0  0
 28 27  1  0  0  0  0
 29 30  1  0  0  0  0
 30 31  2  0  0  0  0
 32 33  2  0  0  0  0
 33 34  1  0  0  0  0
M  END
>  <minimizedAffinity>
-8.22938156

$$$$

 OpenBabel09122223073D

 34 38  0  0  0  0  0  0  0  0999 V2000
    9.5440   -3.1450    0.5870 C   0  0  0  0  0  0  0  0  0  0  0  0
    8.9710   -3.0350    1.8570 C   0  0  0  0  0  3  0  0  0  0  0  0
    7.9670   -3.9190    2.2660 C   0  0  0  0  0  3  0  0  0  0  0  0
    7.5180   -4.9200    1.3990 C   0  0  0  0  0  0  0  0  0  0  0  0
    8.1350   -5.0640    0.1500 C   0  0  0  0  0  3  0  0  0  0  0  0
    9.1440   -4.1820   -0.2550 C   0  0  0  0  0  3  0  0  0  0  0  0
    6.4630   -5.8450    1.7990 C   0  0  0  0  0  0  0  0  0  0  0  0
    6.3270   -7.0460    1.2680 N   0  0  0  0  0  0  0  0  0  0  0  0
    5.2660   -7.6390    1.9010 C   0  0  0  0  0  0  0  0  0  0  0  0
    4.7190   -8.9230    1.7350 C   0  0  0  0  0  3  0  0  0  0  0  0
    3.6150   -9.3210    2.5170 C   0  0  0  0  0  0  0  0  0  0  0  0
    3.0820   -8.4130    3.4480 C   0  0  0  0  0  3  0  0  0  0  0  0
    3.6130   -7.1300    3.6260 C   0  0  0  0  0  3  0  0  0  0  0  0
    4.7090   -6.7710    2.8330 C   0  0  0  0  0  0  0  0  0  0  0  0
    5.4730   -5.6150    2.7380 N   0  0  0  0  0  0  0  0  0  0  0  0
    5.1930   -4.4440    3.5390 C   0  0  0  0  0  3  0  0  0  0  0  0
    3.8710   -3.7570    3.1880 C   0  0  0  0  0  2  0  0  0  0  0  0
    3.5790   -2.8220    4.3640 C   0  0  0  0  0  2  0  0  0  0  0  0
    4.5920   -3.1680    5.4550 C   0  0  0  0  0  2  0  0  0  0  0  0
    5.1420   -4.5360    5.0650 C   0  0  0  0  0  2  0  0  0  0  0  0
    3.0110  -10.7040    2.3630 C   0  0  0  0  0  0  0  0  0  0  0  0
    3.6900  -11.6920    2.7850 O   0  0  0  0  0  1  0  0  0  0  0  0
    1.8600  -10.7750    1.8230 O   0  0  0  0  0  0  0  0  0  0  0  0
   10.5040   -2.2140    0.3040 O   0  0  0  0  0  0  0  0  0  0  0  0
   10.2460   -1.3080   -0.7750 C   0  0  0  0  0  2  0  0  0  0  0  0
   10.3370    2.8170    0.5840 C   0  0  0  0  0  0  0  0  0  0  0  0
   10.9490    2.4440   -0.6220 C   0  0  0  0  0  3  0  0  0  0  0  0
   10.8990    1.1230   -1.0810 C   0  0  0  0  0  3  0  0  0  0  0  0
   10.2250    0.1380   -0.3460 C   0  0  0  0  0  0  0  0  0  0  0  0
    9.6040    0.5050    0.8560 C   0  0  0  0  0  3  0  0  0  0  0  0
    9.6550    1.8280    1.3090 C   0  0  0  0  0  3  0  0  0  0  0  0
   10.1270    5.1730    0.2840 O   0  0  0  0  0  0  0  0  0  0  0  0
   10.4240    4.2420    1.0990 C   0  0  0  0  0  0  0  0  0  0  0  0
   10.7680    4.4030    2.3130 O   0  0  0  0  0  1  0  0  0  0  0  0
  1  2  1  0  0  0  0
  2  3  2  0  0  0  0
  4  7  1  0  0  0  0
  4  3  1  0  0  0  0
  5  4  2  0  0  0  0
  6  5  1  0  0  0  0
  6  1  2  0  0  0  0
  7 15  1  0  0  0  0
  8  7  2  0  0  0  0
  8  9  1  0  0  0  0
  9 14  1  0  0  0  0
 10  9  2  0  0  0  0
 10 11  1  0  0  0  0
 11 12  2  0  0  0  0
 12 13  1  0  0  0  0
 14 13  2  0  0  0  0
 15 14  1  0  0  0  0
 15 16  1  0  0  0  0
 16 20  1  0  0  0  0
 17 16  1  0  0  0  0
 17 18  1  0  0  0  0
 18 19  1  0  0  0  0
 20 19  1  0  0  0  0
 21 11  1  0  0  0  0
 21 22  1  0  0  0  0
 23 21  2  0  0  0  0
 24  1  1  0  0  0  0
 25 29  1  0  0  0  0
 25 24  1  0  0  0  0
 26 33  1  0  0  0  0
 26 31  1  0  0  0  0
 27 26  2  0  0  0  0
 28 27  1  0  0  0  0
 28 29  2  0  0  0  0
 29 30  1  0  0  0  0
 30 31  2  0  0  0  0
 32 33  2  0  0  0  0
 33 34  1  0  0  0  0
M  END
>  <minimizedAffinity>
-8.20133305

$$$$

 OpenBabel09122223073D

 34 38  0  0  0  0  0  0  0  0999 V2000
    2.4910   -9.4880    2.4890 C   0  0  0  0  0  0  0  0  0  0  0  0
    2.6830   -8.8960    1.2380 C   0  0  0  0  0  3  0  0  0  0  0  0
    3.6920   -7.9470    1.0450 C   0  0  0  0  0  3  0  0  0  0  0  0
    4.5170   -7.5730    2.1110 C   0  0  0  0  0  0  0  0  0  0  0  0
    4.3590   -8.2110    3.3480 C   0  0  0  0  0  3  0  0  0  0  0  0
    3.3520   -9.1650    3.5370 C   0  0  0  0  0  3  0  0  0  0  0  0
    5.5670   -6.5760    1.9360 C   0  0  0  0  0  0  0  0  0  0  0  0
    6.5840   -6.7460    1.1120 N   0  0  0  0  0  0  0  0  0  0  0  0
    7.3430   -5.6070    1.1810 C   0  0  0  0  0  0  0  0  0  0  0  0
    8.5140   -5.2610    0.4870 C   0  0  0  0  0  3  0  0  0  0  0  0
    9.1240   -4.0100    0.7200 C   0  0  0  0  0  0  0  0  0  0  0  0
    8.5390   -3.1360    1.6530 C   0  0  0  0  0  3  0  0  0  0  0  0
    7.3730   -3.4650    2.3540 C   0  0  0  0  0  3  0  0  0  0  0  0
    6.7970   -4.7140    2.0950 C   0  0  0  0  0  0  0  0  0  0  0  0
    5.6720   -5.3610    2.5900 N   0  0  0  0  0  0  0  0  0  0  0  0
    4.8280   -4.7630    3.6020 C   0  0  0  0  0  3  0  0  0  0  0  0
    5.5960   -4.2550    4.8240 C   0  0  0  0  0  2  0  0  0  0  0  0
    4.6170   -3.3380    5.5620 C   0  0  0  0  0  2  0  0  0  0  0  0
    3.4180   -3.1500    4.6330 C   0  0  0  0  0  2  0  0  0  0  0  0
    3.9070   -3.5910    3.2590 C   0  0  0  0  0  2  0  0  0  0  0  0
   10.3840   -3.6080   -0.0210 C   0  0  0  0  0  0  0  0  0  0  0  0
   10.4030   -3.7730   -1.2810 O   0  0  0  0  0  0  0  0  0  0  0  0
   11.3360   -3.1280    0.6760 O   0  0  0  0  0  1  0  0  0  0  0  0
    1.4650  -10.3890    2.5510 O   0  0  0  0  0  0  0  0  0  0  0  0
    0.9920  -10.7620    3.8510 C   0  0  0  0  0  2  0  0  0  0  0  0
   -2.4290   -8.5370    5.3370 C   0  0  0  0  0  0  0  0  0  0  0  0
   -1.1370   -7.9960    5.4040 C   0  0  0  0  0  3  0  0  0  0  0  0
   -0.0340   -8.6950    4.9010 C   0  0  0  0  0  3  0  0  0  0  0  0
   -0.1960   -9.9540    4.3070 C   0  0  0  0  0  0  0  0  0  0  0  0
   -1.4870  -10.4970    4.2300 C   0  0  0  0  0  3  0  0  0  0  0  0
   -2.5870   -9.7940    4.7330 C   0  0  0  0  0  3  0  0  0  0  0  0
   -3.8880   -6.6530    5.4250 O   0  0  0  0  0  0  0  0  0  0  0  0
   -3.6210   -7.7960    5.9170 C   0  0  0  0  0  0  0  0  0  0  0  0
   -4.2770   -8.3760    6.8380 O   0  0  0  0  0  1  0  0  0  0  0  0
  1 24  1  0  0  0  0
  1  6  1  0  0  0  0
  2  1  2  0  0  0  0
  3  2  1  0  0  0  0
  3  4  2  0  0  0  0
  4  5  1  0  0  0  0
  5  6  2  0  0  0  0
  7  4  1  0  0  0  0
  7 15  1  0  0  0  0
  8  9  1  0  0  0  0
  8  7  2  0  0  0  0
  9 14  1  0  0  0  0
 10 11  1  0  0  0  0
 10  9  2  0  0  0  0
 11 12  2  0  0  0  0
 12 13  1  0  0  0  0
 14 13  2  0  0  0  0
 14 15  1  0  0  0  0
 15 16  1  0  0  0  0
 16 17  1  0  0  0  0
 17 18  1  0  0  0  0
 19 18  1  0  0  0  0
 20 16  1  0  0  0  0
 20 19  1  0  0  0  0
 21 23  1  0  0  0  0
 21 11  1  0  0  0  0
 22 21  2  0  0  0  0
 24 25  1  0  0  0  0
 25 29  1  0  0  0  0
 26 27  1  0  0  0  0
 26 33  1  0  0  0  0
 28 27  2  0  0  0  0
 29 28  1  0  0  0  0
 30 29  2  0  0  0  0
 30 31  1  0  0  0  0
 31 26  2  0  0  0  0
 32 33  2  0  0  0  0
 33 34  1  0  0  0  0
M  END
>  <minimizedAffinity>
-8.12669182

$$$$

 OpenBabel09122223073D

 34 38  0  0  0  0  0  0  0  0999 V2000
    4.2130   -5.0490    3.0750 C   0  0  0  0  0  0  0  0  0  0  0  0
    3.6070   -5.9590    3.9440 C   0  0  0  0  0  3  0  0  0  0  0  0
    3.5420   -7.3190    3.6220 C   0  0  0  0  0  3  0  0  0  0  0  0
    4.0780   -7.7800    2.4160 C   0  0  0  0  0  0  0  0  0  0  0  0
    4.7360   -6.8750    1.5740 C   0  0  0  0  0  3  0  0  0  0  0  0
    4.8050   -5.5150    1.9010 C   0  0  0  0  0  3  0  0  0  0  0  0
    4.0100   -9.1920    2.0530 C   0  0  0  0  0  0  0  0  0  0  0  0
    3.7530   -9.6030    0.8250 N   0  0  0  0  0  0  0  0  0  0  0  0
    3.8020  -10.9720    0.8480 C   0  0  0  0  0  0  0  0  0  0  0  0
    3.6310  -11.8980   -0.1940 C   0  0  0  0  0  3  0  0  0  0  0  0
    3.7360  -13.2800    0.0710 C   0  0  0  0  0  0  0  0  0  0  0  0
    4.0090  -13.6970    1.3850 C   0  0  0  0  0  3  0  0  0  0  0  0
    4.1820  -12.7890    2.4360 C   0  0  0  0  0  3  0  0  0  0  0  0
    4.0700  -11.4260    2.1340 C   0  0  0  0  0  0  0  0  0  0  0  0
    4.1760  -10.2730    2.9000 N   0  0  0  0  0  0  0  0  0  0  0  0
    4.4290  -10.3200    4.3240 C   0  0  0  0  0  3  0  0  0  0  0  0
    3.2130  -10.7400    5.1530 C   0  0  0  0  0  2  0  0  0  0  0  0
    3.7720  -11.1030    6.5310 C   0  0  0  0  0  2  0  0  0  0  0  0
    5.2940  -11.1200    6.3900 C   0  0  0  0  0  2  0  0  0  0  0  0
    5.5520  -11.1910    4.8890 C   0  0  0  0  0  2  0  0  0  0  0  0
    3.5640  -14.3010   -1.0370 C   0  0  0  0  0  0  0  0  0  0  0  0
    4.3030  -15.3340   -1.0040 O   0  0  0  0  0  1  0  0  0  0  0  0
    2.6840  -14.0490   -1.9230 O   0  0  0  0  0  0  0  0  0  0  0  0
    4.2000   -3.7490    3.4970 O   0  0  0  0  0  0  0  0  0  0  0  0
    2.9890   -3.2580    4.0840 C   0  0  0  0  0  2  0  0  0  0  0  0
    3.5510   -1.2090    7.8720 C   0  0  0  0  0  0  0  0  0  0  0  0
    4.5980   -1.9350    7.2870 C   0  0  0  0  0  3  0  0  0  0  0  0
    4.4330   -2.5740    6.0530 C   0  0  0  0  0  3  0  0  0  0  0  0
    3.2150   -2.4950    5.3650 C   0  0  0  0  0  0  0  0  0  0  0  0
    2.1670   -1.7630    5.9410 C   0  0  0  0  0  3  0  0  0  0  0  0
    2.3370   -1.1250    7.1740 C   0  0  0  0  0  3  0  0  0  0  0  0
    4.8710   -0.0940    9.5150 O   0  0  0  0  0  0  0  0  0  0  0  0
    3.7180   -0.5480    9.2290 C   0  0  0  0  0  0  0  0  0  0  0  0
    2.6900   -0.4780    9.9750 O   0  0  0  0  0  1  0  0  0  0  0  0
  1 24  1  0  0  0  0
  1  2  1  0  0  0  0
  3  2  2  0  0  0  0
  4  3  1  0  0  0  0
  5  6  1  0  0  0  0
  5  4  2  0  0  0  0
  6  1  2  0  0  0  0
  7  4  1  0  0  0  0
  7 15  1  0  0  0  0
  8  9  1  0  0  0  0
  8  7  2  0  0  0  0
  9 14  1  0  0  0  0
 10 11  1  0  0  0  0
 10  9  2  0  0  0  0
 11 12  2  0  0  0  0
 12 13  1  0  0  0  0
 14 13  2  0  0  0  0
 14 15  1  0  0  0  0
 15 16  1  0  0  0  0
 16 20  1  0  0  0  0
 16 17  1  0  0  0  0
 17 18  1  0  0  0  0
 19 18  1  0  0  0  0
 20 19  1  0  0  0  0
 21 22  1  0  0  0  0
 21 11  1  0  0  0  0
 23 21  2  0  0  0  0
 24 25  1  0  0  0  0
 25 29  1  0  0  0  0
 26 33  1  0  0  0  0
 27 26  1  0  0  0  0
 28 27  2  0  0  0  0
 29 30  2  0  0  0  0
 29 28  1  0  0  0  0
 30 31  1  0  0  0  0
 31 26  2  0  0  0  0
 33 32  2  0  0  0  0
 33 34  1  0  0  0  0
M  END
>  <minimizedAffinity>
-8.02849674

$$$$

 OpenBabel09122223073D

 34 38  0  0  0  0  0  0  0  0999 V2000
    5.3070   -7.1580    2.3700 C   0  0  0  0  0  0  0  0  0  0  0  0
    6.2280   -8.2080    2.3910 C   0  0  0  0  0  3  0  0  0  0  0  0
    5.9940   -9.3460    3.1710 C   0  0  0  0  0  3  0  0  0  0  0  0
    4.8350   -9.4380    3.9480 C   0  0  0  0  0  0  0  0  0  0  0  0
    3.8870   -8.4090    3.8790 C   0  0  0  0  0  3  0  0  0  0  0  0
    4.1200   -7.2740    3.0930 C   0  0  0  0  0  3  0  0  0  0  0  0
    4.5770  -10.6100    4.7780 C   0  0  0  0  0  0  0  0  0  0  0  0
    4.9250  -10.6750    6.0500 N   0  0  0  0  0  0  0  0  0  0  0  0
    4.4990  -11.8920    6.5130 C   0  0  0  0  0  0  0  0  0  0  0  0
    4.5930  -12.4500    7.7990 C   0  0  0  0  0  3  0  0  0  0  0  0
    4.0680  -13.7360    8.0460 C   0  0  0  0  0  0  0  0  0  0  0  0
    3.4620  -14.4340    6.9870 C   0  0  0  0  0  3  0  0  0  0  0  0
    3.3610  -13.8940    5.6990 C   0  0  0  0  0  3  0  0  0  0  0  0
    3.8930  -12.6150    5.4940 C   0  0  0  0  0  0  0  0  0  0  0  0
    3.9730  -11.7900    4.3810 N   0  0  0  0  0  0  0  0  0  0  0  0
    3.4670  -12.1960    3.0870 C   0  0  0  0  0  3  0  0  0  0  0  0
    2.3260  -11.3190    2.5680 C   0  0  0  0  0  2  0  0  0  0  0  0
    2.2100  -11.6500    1.0780 C   0  0  0  0  0  2  0  0  0  0  0  0
    3.4250  -12.5100    0.7300 C   0  0  0  0  0  2  0  0  0  0  0  0
    4.4020  -12.2990    1.8810 C   0  0  0  0  0  2  0  0  0  0  0  0
    4.1480  -14.3580    9.4270 C   0  0  0  0  0  0  0  0  0  0  0  0
    3.4190  -15.3730    9.6570 O   0  0  0  0  0  0  0  0  0  0  0  0
    4.9470  -13.8170   10.2590 O   0  0  0  0  0  1  0  0  0  0  0  0
    5.6570   -6.0980    1.5810 O   0  0  0  0  0  0  0  0  0  0  0  0
    6.3660   -5.0190    2.2010 C   0  0  0  0  0  2  0  0  0  0  0  0
    9.7690   -3.6620   -0.1330 C   0  0  0  0  0  0  0  0  0  0  0  0
    9.4980   -3.1110    1.1290 C   0  0  0  0  0  3  0  0  0  0  0  0
    8.4210   -3.5640    1.8990 C   0  0  0  0  0  3  0  0  0  0  0  0
    7.5890   -4.5890    1.4290 C   0  0  0  0  0  0  0  0  0  0  0  0
    7.8590   -5.1480    0.1720 C   0  0  0  0  0  3  0  0  0  0  0  0
    8.9380   -4.6940   -0.5930 C   0  0  0  0  0  3  0  0  0  0  0  0
   11.9660   -3.8590   -1.0390 O   0  0  0  0  0  1  0  0  0  0  0  0
   10.9150   -3.1440   -0.9840 C   0  0  0  0  0  0  0  0  0  0  0  0
   10.7370   -2.0440   -1.5960 O   0  0  0  0  0  0  0  0  0  0  0  0
  1  2  2  0  0  0  0
  1  6  1  0  0  0  0
  2  3  1  0  0  0  0
  3  4  2  0  0  0  0
  4  7  1  0  0  0  0
  5  4  1  0  0  0  0
  6  5  2  0  0  0  0
  7  8  2  0  0  0  0
  8  9  1  0  0  0  0
  9 10  1  0  0  0  0
 10 11  2  0  0  0  0
 11 21  1  0  0  0  0
 12 11  1  0  0  0  0
 13 12  2  0  0  0  0
 14 13  1  0  0  0  0
 14  9  2  0  0  0  0
 15  7  1  0  0  0  0
 15 14  1  0  0  0  0
 16 15  1  0  0  0  0
 17 16  1  0  0  0  0
 18 17  1  0  0  0  0
 19 18  1  0  0  0  0
 19 20  1  0  0  0  0
 20 16  1  0  0  0  0
 21 22  2  0  0  0  0
 21 23  1  0  0  0  0
 24 25  1  0  0  0  0
 24  1  1  0  0  0  0
 26 27  1  0  0  0  0
 27 28  2  0  0  0  0
 29 28  1  0  0  0  0
 29 25  1  0  0  0  0
 30 29  2  0  0  0  0
 31 26  2  0  0  0  0
 31 30  1  0  0  0  0
 32 33  1  0  0  0  0
 33 26  1  0  0  0  0
 34 33  2  0  0  0  0
M  END
>  <minimizedAffinity>
-8.02512932

$$$$
