
 OpenBabel09132204463D

 34 38  0  0  0  0  0  0  0  0999 V2000
    4.2660   -7.8370    2.6210 C   0  0  0  0  0  0  0  0  0  0  0  0
    5.2100   -8.8670    2.5660 C   0  0  0  0  0  3  0  0  0  0  0  0
    5.2440   -9.8550    3.5540 C   0  0  0  0  0  3  0  0  0  0  0  0
    4.3370   -9.8170    4.6170 C   0  0  0  0  0  0  0  0  0  0  0  0
    3.3560   -8.8180    4.6380 C   0  0  0  0  0  3  0  0  0  0  0  0
    3.3180   -7.8320    3.6440 C   0  0  0  0  0  3  0  0  0  0  0  0
    4.3630  -10.8310    5.6670 C   0  0  0  0  0  0  0  0  0  0  0  0
    5.0020  -10.6600    6.8090 N   0  0  0  0  0  0  0  0  0  0  0  0
    4.7830  -11.7890    7.5550 C   0  0  0  0  0  0  0  0  0  0  0  0
    5.2130  -12.1080    8.8540 C   0  0  0  0  0  3  0  0  0  0  0  0
    4.8530  -13.3450    9.4280 C   0  0  0  0  0  0  0  0  0  0  0  0
    4.0690  -14.2360    8.6760 C   0  0  0  0  0  3  0  0  0  0  0  0
    3.6320  -13.9360    7.3810 C   0  0  0  0  0  3  0  0  0  0  0  0
    4.0100  -12.6980    6.8450 C   0  0  0  0  0  0  0  0  0  0  0  0
    3.7690  -12.0800    5.6260 N   0  0  0  0  0  0  0  0  0  0  0  0
    3.0070  -12.7240    4.5770 C   0  0  0  0  0  3  0  0  0  0  0  0
    1.7400  -11.9630    4.1800 C   0  0  0  0  0  2  0  0  0  0  0  0
    1.3100  -12.5690    2.8420 C   0  0  0  0  0  2  0  0  0  0  0  0
    2.4550  -13.4750    2.3890 C   0  0  0  0  0  2  0  0  0  0  0  0
    3.6540  -13.0490    3.2300 C   0  0  0  0  0  2  0  0  0  0  0  0
    5.2960  -13.7110   10.8320 C   0  0  0  0  0  0  0  0  0  0  0  0
    6.4930  -13.4350   11.1600 O   0  0  0  0  0  0  0  0  0  0  0  0
    4.4330  -14.2670   11.5840 O   0  0  0  0  0  1  0  0  0  0  0  0
    4.3440   -6.9260    1.6040 O   0  0  0  0  0  0  0  0  0  0  0  0
    5.2010   -7.2420    0.5000 C   0  0  0  0  0  2  0  0  0  0  0  0
    8.4950   -4.4730   -0.0910 C   0  0  0  0  0  0  0  0  0  0  0  0
    7.7510   -4.9470   -1.1820 C   0  0  0  0  0  3  0  0  0  0  0  0
    6.6710   -5.8170   -0.9960 C   0  0  0  0  0  3  0  0  0  0  0  0
    6.2990   -6.2290    0.2900 C   0  0  0  0  0  0  0  0  0  0  0  0
    7.0330   -5.7520    1.3850 C   0  0  0  0  0  3  0  0  0  0  0  0
    8.1120   -4.8810    1.1960 C   0  0  0  0  0  3  0  0  0  0  0  0
   10.4860   -3.8490   -1.2460 O   0  0  0  0  0  0  0  0  0  0  0  0
    9.6910   -3.5600   -0.2960 C   0  0  0  0  0  0  0  0  0  0  0  0
    9.8020   -2.5610    0.4840 O   0  0  0  0  0  1  0  0  0  0  0  0
  1  6  1  0  0  0  0
  2  1  2  0  0  0  0
  2  3  1  0  0  0  0
  3  4  2  0  0  0  0
  4  5  1  0  0  0  0
  4  7  1  0  0  0  0
  6  5  2  0  0  0  0
  7  8  2  0  0  0  0
  8  9  1  0  0  0  0
  9 10  1  0  0  0  0
 10 11  2  0  0  0  0
 11 21  1  0  0  0  0
 12 11  1  0  0  0  0
 13 12  2  0  0  0  0
 14 13  1  0  0  0  0
 14  9  2  0  0  0  0
 15  7  1  0  0  0  0
 15 14  1  0  0  0  0
 16 15  1  0  0  0  0
 17 16  1  0  0  0  0
 18 17  1  0  0  0  0
 19 18  1  0  0  0  0
 19 20  1  0  0  0  0
 20 16  1  0  0  0  0
 21 22  2  0  0  0  0
 21 23  1  0  0  0  0
 24  1  1  0  0  0  0
 25 24  1  0  0  0  0
 26 31  1  0  0  0  0
 27 28  1  0  0  0  0
 27 26  2  0  0  0  0
 28 29  2  0  0  0  0
 29 25  1  0  0  0  0
 29 30  1  0  0  0  0
 31 30  2  0  0  0  0
 32 33  2  0  0  0  0
 33 26  1  0  0  0  0
 33 34  1  0  0  0  0
M  END
>  <minimizedAffinity>
-8.52070332

$$$$
