
 OpenBabel09132204463D

 34 38  0  0  0  0  0  0  0  0999 V2000
    3.4620   -1.3640    7.6730 C   0  0  0  0  0  0  0  0  0  0  0  0
    4.7420   -1.8570    7.4070 C   0  0  0  0  0  3  0  0  0  0  0  0
    4.9510   -2.7810    6.3780 C   0  0  0  0  0  3  0  0  0  0  0  0
    3.8740   -3.2290    5.6080 C   0  0  0  0  0  0  0  0  0  0  0  0
    2.6020   -2.6890    5.8400 C   0  0  0  0  0  3  0  0  0  0  0  0
    2.3960   -1.7600    6.8660 C   0  0  0  0  0  3  0  0  0  0  0  0
    4.0660   -4.2020    4.5380 C   0  0  0  0  0  0  0  0  0  0  0  0
    4.5940   -3.8850    3.3700 N   0  0  0  0  0  0  0  0  0  0  0  0
    4.6510   -5.0410    2.6370 C   0  0  0  0  0  0  0  0  0  0  0  0
    5.1500   -5.2640    1.3420 C   0  0  0  0  0  3  0  0  0  0  0  0
    5.1100   -6.5600    0.7880 C   0  0  0  0  0  0  0  0  0  0  0  0
    4.5620   -7.6050    1.5520 C   0  0  0  0  0  3  0  0  0  0  0  0
    4.0600   -7.4020    2.8430 C   0  0  0  0  0  3  0  0  0  0  0  0
    4.1180   -6.1020    3.3580 C   0  0  0  0  0  0  0  0  0  0  0  0
    3.7230   -5.5420    4.5660 N   0  0  0  0  0  0  0  0  0  0  0  0
    3.0870   -6.3270    5.6030 C   0  0  0  0  0  3  0  0  0  0  0  0
    3.6760   -6.1020    6.9970 C   0  0  0  0  0  2  0  0  0  0  0  0
    2.6490   -6.6890    7.9670 C   0  0  0  0  0  2  0  0  0  0  0  0
    1.4040   -7.0090    7.1390 C   0  0  0  0  0  2  0  0  0  0  0  0
    1.5790   -6.2260    5.8430 C   0  0  0  0  0  2  0  0  0  0  0  0
    5.6500   -6.8300   -0.6030 C   0  0  0  0  0  0  0  0  0  0  0  0
    5.3780   -7.9530   -1.1310 O   0  0  0  0  0  1  0  0  0  0  0  0
    6.3360   -5.9040   -1.1460 O   0  0  0  0  0  0  0  0  0  0  0  0
    3.3880   -0.4780    8.7120 O   0  0  0  0  0  0  0  0  0  0  0  0
    3.8270   -0.9310    9.9980 C   0  0  0  0  0  2  0  0  0  0  0  0
    1.9510   -4.7090   11.0330 C   0  0  0  0  0  0  0  0  0  0  0  0
    3.3480   -4.5800   11.0220 C   0  0  0  0  0  3  0  0  0  0  0  0
    3.9590   -3.3580   10.7180 C   0  0  0  0  0  3  0  0  0  0  0  0
    3.1860   -2.2280   10.4240 C   0  0  0  0  0  0  0  0  0  0  0  0
    1.7890   -2.3480   10.4400 C   0  0  0  0  0  3  0  0  0  0  0  0
    1.1820   -3.5710   10.7470 C   0  0  0  0  0  3  0  0  0  0  0  0
    0.0180   -6.0750   11.3190 O   0  0  0  0  0  0  0  0  0  0  0  0
    1.2900   -6.0440   11.3260 C   0  0  0  0  0  0  0  0  0  0  0  0
    2.0530   -7.0390   11.5380 O   0  0  0  0  0  1  0  0  0  0  0  0
  1 24  1  0  0  0  0
  2  1  1  0  0  0  0
  3  2  2  0  0  0  0
  4  5  2  0  0  0  0
  4  3  1  0  0  0  0
  5  6  1  0  0  0  0
  6  1  2  0  0  0  0
  7 15  1  0  0  0  0
  7  4  1  0  0  0  0
  8  7  2  0  0  0  0
  9 14  1  0  0  0  0
  9  8  1  0  0  0  0
 10  9  2  0  0  0  0
 11 10  1  0  0  0  0
 11 12  2  0  0  0  0
 12 13  1  0  0  0  0
 13 14  2  0  0  0  0
 14 15  1  0  0  0  0
 15 16  1  0  0  0  0
 16 20  1  0  0  0  0
 16 17  1  0  0  0  0
 17 18  1  0  0  0  0
 19 18  1  0  0  0  0
 20 19  1  0  0  0  0
 21 11  1  0  0  0  0
 22 21  1  0  0  0  0
 23 21  2  0  0  0  0
 24 25  1  0  0  0  0
 25 29  1  0  0  0  0
 26 33  1  0  0  0  0
 27 26  1  0  0  0  0
 28 27  2  0  0  0  0
 29 30  2  0  0  0  0
 29 28  1  0  0  0  0
 30 31  1  0  0  0  0
 31 26  2  0  0  0  0
 32 33  2  0  0  0  0
 33 34  1  0  0  0  0
M  END
>  <minimizedAffinity>
-8.38942432

$$$$
