
 OpenBabel09132204463D

 34 38  0  0  0  0  0  0  0  0999 V2000
    9.5440   -3.1450    0.5870 C   0  0  0  0  0  0  0  0  0  0  0  0
    8.9710   -3.0350    1.8570 C   0  0  0  0  0  3  0  0  0  0  0  0
    7.9670   -3.9190    2.2660 C   0  0  0  0  0  3  0  0  0  0  0  0
    7.5180   -4.9200    1.3990 C   0  0  0  0  0  0  0  0  0  0  0  0
    8.1350   -5.0640    0.1500 C   0  0  0  0  0  3  0  0  0  0  0  0
    9.1440   -4.1820   -0.2550 C   0  0  0  0  0  3  0  0  0  0  0  0
    6.4630   -5.8450    1.7990 C   0  0  0  0  0  0  0  0  0  0  0  0
    6.3270   -7.0460    1.2680 N   0  0  0  0  0  0  0  0  0  0  0  0
    5.2660   -7.6390    1.9010 C   0  0  0  0  0  0  0  0  0  0  0  0
    4.7190   -8.9230    1.7350 C   0  0  0  0  0  3  0  0  0  0  0  0
    3.6150   -9.3210    2.5170 C   0  0  0  0  0  0  0  0  0  0  0  0
    3.0820   -8.4130    3.4480 C   0  0  0  0  0  3  0  0  0  0  0  0
    3.6130   -7.1300    3.6260 C   0  0  0  0  0  3  0  0  0  0  0  0
    4.7090   -6.7710    2.8330 C   0  0  0  0  0  0  0  0  0  0  0  0
    5.4730   -5.6150    2.7380 N   0  0  0  0  0  0  0  0  0  0  0  0
    5.1930   -4.4440    3.5390 C   0  0  0  0  0  3  0  0  0  0  0  0
    3.8710   -3.7570    3.1880 C   0  0  0  0  0  2  0  0  0  0  0  0
    3.5790   -2.8220    4.3640 C   0  0  0  0  0  2  0  0  0  0  0  0
    4.5920   -3.1680    5.4550 C   0  0  0  0  0  2  0  0  0  0  0  0
    5.1420   -4.5360    5.0650 C   0  0  0  0  0  2  0  0  0  0  0  0
    3.0110  -10.7040    2.3630 C   0  0  0  0  0  0  0  0  0  0  0  0
    3.6900  -11.6920    2.7850 O   0  0  0  0  0  1  0  0  0  0  0  0
    1.8600  -10.7750    1.8230 O   0  0  0  0  0  0  0  0  0  0  0  0
   10.5040   -2.2140    0.3040 O   0  0  0  0  0  0  0  0  0  0  0  0
   10.2460   -1.3080   -0.7750 C   0  0  0  0  0  2  0  0  0  0  0  0
   10.3370    2.8170    0.5840 C   0  0  0  0  0  0  0  0  0  0  0  0
   10.9490    2.4440   -0.6220 C   0  0  0  0  0  3  0  0  0  0  0  0
   10.8990    1.1230   -1.0810 C   0  0  0  0  0  3  0  0  0  0  0  0
   10.2250    0.1380   -0.3460 C   0  0  0  0  0  0  0  0  0  0  0  0
    9.6040    0.5050    0.8560 C   0  0  0  0  0  3  0  0  0  0  0  0
    9.6550    1.8280    1.3090 C   0  0  0  0  0  3  0  0  0  0  0  0
   10.1270    5.1730    0.2840 O   0  0  0  0  0  0  0  0  0  0  0  0
   10.4240    4.2420    1.0990 C   0  0  0  0  0  0  0  0  0  0  0  0
   10.7680    4.4030    2.3130 O   0  0  0  0  0  1  0  0  0  0  0  0
  1  2  1  0  0  0  0
  2  3  2  0  0  0  0
  4  7  1  0  0  0  0
  4  3  1  0  0  0  0
  5  4  2  0  0  0  0
  6  5  1  0  0  0  0
  6  1  2  0  0  0  0
  7 15  1  0  0  0  0
  8  7  2  0  0  0  0
  8  9  1  0  0  0  0
  9 14  1  0  0  0  0
 10  9  2  0  0  0  0
 10 11  1  0  0  0  0
 11 12  2  0  0  0  0
 12 13  1  0  0  0  0
 14 13  2  0  0  0  0
 15 14  1  0  0  0  0
 15 16  1  0  0  0  0
 16 20  1  0  0  0  0
 17 16  1  0  0  0  0
 17 18  1  0  0  0  0
 18 19  1  0  0  0  0
 20 19  1  0  0  0  0
 21 11  1  0  0  0  0
 21 22  1  0  0  0  0
 23 21  2  0  0  0  0
 24  1  1  0  0  0  0
 25 29  1  0  0  0  0
 25 24  1  0  0  0  0
 26 33  1  0  0  0  0
 26 31  1  0  0  0  0
 27 26  2  0  0  0  0
 28 27  1  0  0  0  0
 28 29  2  0  0  0  0
 29 30  1  0  0  0  0
 30 31  2  0  0  0  0
 32 33  2  0  0  0  0
 33 34  1  0  0  0  0
M  END
>  <minimizedAffinity>
-8.20133305

$$$$
