
 OpenBabel09132204463D

 34 38  0  0  0  0  0  0  0  0999 V2000
    5.3070   -7.1580    2.3700 C   0  0  0  0  0  0  0  0  0  0  0  0
    6.2280   -8.2080    2.3910 C   0  0  0  0  0  3  0  0  0  0  0  0
    5.9940   -9.3460    3.1710 C   0  0  0  0  0  3  0  0  0  0  0  0
    4.8350   -9.4380    3.9480 C   0  0  0  0  0  0  0  0  0  0  0  0
    3.8870   -8.4090    3.8790 C   0  0  0  0  0  3  0  0  0  0  0  0
    4.1200   -7.2740    3.0930 C   0  0  0  0  0  3  0  0  0  0  0  0
    4.5770  -10.6100    4.7780 C   0  0  0  0  0  0  0  0  0  0  0  0
    4.9250  -10.6750    6.0500 N   0  0  0  0  0  0  0  0  0  0  0  0
    4.4990  -11.8920    6.5130 C   0  0  0  0  0  0  0  0  0  0  0  0
    4.5930  -12.4500    7.7990 C   0  0  0  0  0  3  0  0  0  0  0  0
    4.0680  -13.7360    8.0460 C   0  0  0  0  0  0  0  0  0  0  0  0
    3.4620  -14.4340    6.9870 C   0  0  0  0  0  3  0  0  0  0  0  0
    3.3610  -13.8940    5.6990 C   0  0  0  0  0  3  0  0  0  0  0  0
    3.8930  -12.6150    5.4940 C   0  0  0  0  0  0  0  0  0  0  0  0
    3.9730  -11.7900    4.3810 N   0  0  0  0  0  0  0  0  0  0  0  0
    3.4670  -12.1960    3.0870 C   0  0  0  0  0  3  0  0  0  0  0  0
    2.3260  -11.3190    2.5680 C   0  0  0  0  0  2  0  0  0  0  0  0
    2.2100  -11.6500    1.0780 C   0  0  0  0  0  2  0  0  0  0  0  0
    3.4250  -12.5100    0.7300 C   0  0  0  0  0  2  0  0  0  0  0  0
    4.4020  -12.2990    1.8810 C   0  0  0  0  0  2  0  0  0  0  0  0
    4.1480  -14.3580    9.4270 C   0  0  0  0  0  0  0  0  0  0  0  0
    3.4190  -15.3730    9.6570 O   0  0  0  0  0  0  0  0  0  0  0  0
    4.9470  -13.8170   10.2590 O   0  0  0  0  0  1  0  0  0  0  0  0
    5.6570   -6.0980    1.5810 O   0  0  0  0  0  0  0  0  0  0  0  0
    6.3660   -5.0190    2.2010 C   0  0  0  0  0  2  0  0  0  0  0  0
    9.7690   -3.6620   -0.1330 C   0  0  0  0  0  0  0  0  0  0  0  0
    9.4980   -3.1110    1.1290 C   0  0  0  0  0  3  0  0  0  0  0  0
    8.4210   -3.5640    1.8990 C   0  0  0  0  0  3  0  0  0  0  0  0
    7.5890   -4.5890    1.4290 C   0  0  0  0  0  0  0  0  0  0  0  0
    7.8590   -5.1480    0.1720 C   0  0  0  0  0  3  0  0  0  0  0  0
    8.9380   -4.6940   -0.5930 C   0  0  0  0  0  3  0  0  0  0  0  0
   11.9660   -3.8590   -1.0390 O   0  0  0  0  0  1  0  0  0  0  0  0
   10.9150   -3.1440   -0.9840 C   0  0  0  0  0  0  0  0  0  0  0  0
   10.7370   -2.0440   -1.5960 O   0  0  0  0  0  0  0  0  0  0  0  0
  1  2  2  0  0  0  0
  1  6  1  0  0  0  0
  2  3  1  0  0  0  0
  3  4  2  0  0  0  0
  4  7  1  0  0  0  0
  5  4  1  0  0  0  0
  6  5  2  0  0  0  0
  7  8  2  0  0  0  0
  8  9  1  0  0  0  0
  9 10  1  0  0  0  0
 10 11  2  0  0  0  0
 11 21  1  0  0  0  0
 12 11  1  0  0  0  0
 13 12  2  0  0  0  0
 14 13  1  0  0  0  0
 14  9  2  0  0  0  0
 15  7  1  0  0  0  0
 15 14  1  0  0  0  0
 16 15  1  0  0  0  0
 17 16  1  0  0  0  0
 18 17  1  0  0  0  0
 19 18  1  0  0  0  0
 19 20  1  0  0  0  0
 20 16  1  0  0  0  0
 21 22  2  0  0  0  0
 21 23  1  0  0  0  0
 24 25  1  0  0  0  0
 24  1  1  0  0  0  0
 26 27  1  0  0  0  0
 27 28  2  0  0  0  0
 29 28  1  0  0  0  0
 29 25  1  0  0  0  0
 30 29  2  0  0  0  0
 31 26  2  0  0  0  0
 31 30  1  0  0  0  0
 32 33  1  0  0  0  0
 33 26  1  0  0  0  0
 34 33  2  0  0  0  0
M  END
>  <minimizedAffinity>
-8.02512932

$$$$
