
 OpenBabel09132204463D

 34 38  0  0  0  0  0  0  0  0999 V2000
    4.7200  -11.1880    2.7110 C   0  0  0  0  0  0  0  0  0  0  0  0
    5.7610  -10.3590    3.1370 C   0  0  0  0  0  3  0  0  0  0  0  0
    5.5120   -9.0280    3.4900 C   0  0  0  0  0  3  0  0  0  0  0  0
    4.2160   -8.5120    3.4130 C   0  0  0  0  0  0  0  0  0  0  0  0
    3.1670   -9.3620    3.0420 C   0  0  0  0  0  3  0  0  0  0  0  0
    3.4160  -10.6950    2.6940 C   0  0  0  0  0  3  0  0  0  0  0  0
    3.9360   -7.1240    3.7650 C   0  0  0  0  0  0  0  0  0  0  0  0
    3.3890   -6.7740    4.9140 N   0  0  0  0  0  0  0  0  0  0  0  0
    3.3070   -5.4060    4.9120 C   0  0  0  0  0  0  0  0  0  0  0  0
    2.8320   -4.5300    5.9020 C   0  0  0  0  0  3  0  0  0  0  0  0
    2.8540   -3.1380    5.6770 C   0  0  0  0  0  0  0  0  0  0  0  0
    3.3540   -2.6590    4.4530 C   0  0  0  0  0  3  0  0  0  0  0  0
    3.8310   -3.5170    3.4550 C   0  0  0  0  0  3  0  0  0  0  0  0
    3.7920   -4.8920    3.7160 C   0  0  0  0  0  0  0  0  0  0  0  0
    4.1690   -6.0080    2.9800 N   0  0  0  0  0  0  0  0  0  0  0  0
    4.7080   -5.8970    1.6420 C   0  0  0  0  0  3  0  0  0  0  0  0
    6.2360   -5.8290    1.5970 C   0  0  0  0  0  2  0  0  0  0  0  0
    6.6080   -6.1100    0.1390 C   0  0  0  0  0  2  0  0  0  0  0  0
    5.3250   -6.5670   -0.5550 C   0  0  0  0  0  2  0  0  0  0  0  0
    4.3750   -6.9430    0.5770 C   0  0  0  0  0  2  0  0  0  0  0  0
    2.3550   -2.1700    6.7320 C   0  0  0  0  0  0  0  0  0  0  0  0
    2.3560   -2.5650    7.9390 O   0  0  0  0  0  1  0  0  0  0  0  0
    1.9710   -1.0240    6.3290 O   0  0  0  0  0  0  0  0  0  0  0  0
    5.0940  -12.4620    2.3810 O   0  0  0  0  0  0  0  0  0  0  0  0
    4.4370  -13.5390    3.0590 C   0  0  0  0  0  2  0  0  0  0  0  0
    5.0870  -13.2890    7.3460 C   0  0  0  0  0  0  0  0  0  0  0  0
    3.7900  -13.2650    6.8150 C   0  0  0  0  0  3  0  0  0  0  0  0
    3.5710  -13.3740    5.4370 C   0  0  0  0  0  3  0  0  0  0  0  0
    4.6480  -13.5190    4.5530 C   0  0  0  0  0  0  0  0  0  0  0  0
    5.9470  -13.5520    5.0790 C   0  0  0  0  0  3  0  0  0  0  0  0
    6.1610  -13.4440    6.4570 C   0  0  0  0  0  3  0  0  0  0  0  0
    6.3500  -12.4670    9.1950 O   0  0  0  0  0  0  0  0  0  0  0  0
    5.3260  -13.1320    8.8380 C   0  0  0  0  0  0  0  0  0  0  0  0
    4.4760  -13.6590    9.6230 O   0  0  0  0  0  1  0  0  0  0  0  0
  1  2  1  0  0  0  0
  2  3  2  0  0  0  0
  4  3  1  0  0  0  0
  4  7  1  0  0  0  0
  5  4  2  0  0  0  0
  6  1  2  0  0  0  0
  6  5  1  0  0  0  0
  7  8  2  0  0  0  0
  9  8  1  0  0  0  0
  9 10  1  0  0  0  0
 11 10  2  0  0  0  0
 11 21  1  0  0  0  0
 12 11  1  0  0  0  0
 13 14  1  0  0  0  0
 13 12  2  0  0  0  0
 14  9  2  0  0  0  0
 15 14  1  0  0  0  0
 15  7  1  0  0  0  0
 16 15  1  0  0  0  0
 17 16  1  0  0  0  0
 18 17  1  0  0  0  0
 19 18  1  0  0  0  0
 19 20  1  0  0  0  0
 20 16  1  0  0  0  0
 21 22  1  0  0  0  0
 23 21  2  0  0  0  0
 24  1  1  0  0  0  0
 24 25  1  0  0  0  0
 25 29  1  0  0  0  0
 26 33  1  0  0  0  0
 27 26  1  0  0  0  0
 28 27  2  0  0  0  0
 29 30  2  0  0  0  0
 29 28  1  0  0  0  0
 30 31  1  0  0  0  0
 31 26  2  0  0  0  0
 33 32  2  0  0  0  0
 33 34  1  0  0  0  0
M  END
>  <minimizedAffinity>
-8.66853523

$$$$
