
 OpenBabel09132204463D

 34 38  0  0  0  0  0  0  0  0999 V2000
   10.6830   -0.5310    5.4640 C   0  0  0  0  0  0  0  0  0  0  0  0
   10.1020    0.0090    4.3140 C   0  0  0  0  0  3  0  0  0  0  0  0
    9.5160   -0.8220    3.3540 C   0  0  0  0  0  3  0  0  0  0  0  0
    9.5150   -2.2090    3.5320 C   0  0  0  0  0  0  0  0  0  0  0  0
   10.0460   -2.7420    4.7130 C   0  0  0  0  0  3  0  0  0  0  0  0
   10.6270   -1.9080    5.6770 C   0  0  0  0  0  3  0  0  0  0  0  0
    8.9200   -3.0950    2.5380 C   0  0  0  0  0  0  0  0  0  0  0  0
    7.8850   -3.8720    2.8000 N   0  0  0  0  0  0  0  0  0  0  0  0
    7.5820   -4.5300    1.6370 C   0  0  0  0  0  0  0  0  0  0  0  0
    6.5550   -5.4490    1.3630 C   0  0  0  0  0  3  0  0  0  0  0  0
    6.4310   -5.9980    0.0700 C   0  0  0  0  0  0  0  0  0  0  0  0
    7.3510   -5.6100   -0.9200 C   0  0  0  0  0  3  0  0  0  0  0  0
    8.3810   -4.6970   -0.6650 C   0  0  0  0  0  3  0  0  0  0  0  0
    8.4700   -4.1730    0.6300 C   0  0  0  0  0  0  0  0  0  0  0  0
    9.3390   -3.2710    1.2300 N   0  0  0  0  0  0  0  0  0  0  0  0
   10.4440   -2.6770    0.5100 C   0  0  0  0  0  3  0  0  0  0  0  0
   11.4900   -3.6900    0.0390 C   0  0  0  0  0  2  0  0  0  0  0  0
   12.3290   -2.9460   -1.0020 C   0  0  0  0  0  2  0  0  0  0  0  0
   11.6070   -1.6280   -1.2790 C   0  0  0  0  0  2  0  0  0  0  0  0
   10.1960   -1.8270   -0.7370 C   0  0  0  0  0  2  0  0  0  0  0  0
    5.3270   -6.9850   -0.2550 C   0  0  0  0  0  0  0  0  0  0  0  0
    5.5000   -7.7530   -1.2530 O   0  0  0  0  0  0  0  0  0  0  0  0
    4.3020   -6.9750    0.5010 O   0  0  0  0  0  1  0  0  0  0  0  0
   11.2340    0.3840    6.3180 O   0  0  0  0  0  0  0  0  0  0  0  0
   11.0700    1.7700    5.9960 C   0  0  0  0  0  2  0  0  0  0  0  0
    8.7790    3.9100    9.0020 C   0  0  0  0  0  0  0  0  0  0  0  0
    9.4300    4.6010    7.9700 C   0  0  0  0  0  3  0  0  0  0  0  0
   10.1460    3.9160    6.9810 C   0  0  0  0  0  3  0  0  0  0  0  0
   10.2220    2.5170    6.9950 C   0  0  0  0  0  0  0  0  0  0  0  0
    9.5660    1.8200    8.0190 C   0  0  0  0  0  3  0  0  0  0  0  0
    8.8490    2.5090    9.0040 C   0  0  0  0  0  3  0  0  0  0  0  0
    8.0020    5.9250   10.0140 O   0  0  0  0  0  0  0  0  0  0  0  0
    8.0340    4.6550   10.0950 C   0  0  0  0  0  0  0  0  0  0  0  0
    7.4800    3.9580   11.0030 O   0  0  0  0  0  1  0  0  0  0  0  0
  1  6  1  0  0  0  0
  1 24  1  0  0  0  0
  2  1  2  0  0  0  0
  3  4  2  0  0  0  0
  3  2  1  0  0  0  0
  4  5  1  0  0  0  0
  5  6  2  0  0  0  0
  7  8  2  0  0  0  0
  7  4  1  0  0  0  0
  9  8  1  0  0  0  0
 10  9  1  0  0  0  0
 11 10  2  0  0  0  0
 12 13  2  0  0  0  0
 12 11  1  0  0  0  0
 13 14  1  0  0  0  0
 14 15  1  0  0  0  0
 14  9  2  0  0  0  0
 15  7  1  0  0  0  0
 16 15  1  0  0  0  0
 17 16  1  0  0  0  0
 18 17  1  0  0  0  0
 19 18  1  0  0  0  0
 19 20  1  0  0  0  0
 20 16  1  0  0  0  0
 21 11  1  0  0  0  0
 21 23  1  0  0  0  0
 22 21  2  0  0  0  0
 25 24  1  0  0  0  0
 25 29  1  0  0  0  0
 26 31  1  0  0  0  0
 26 33  1  0  0  0  0
 27 26  2  0  0  0  0
 28 29  2  0  0  0  0
 28 27  1  0  0  0  0
 29 30  1  0  0  0  0
 30 31  2  0  0  0  0
 32 33  2  0  0  0  0
 33 34  1  0  0  0  0
M  END
>  <minimizedAffinity>
-8.22938156

$$$$
