
 OpenBabel09132204463D

 34 38  0  0  0  0  0  0  0  0999 V2000
    8.0780   -4.9990   -0.6240 C   0  0  0  0  0  0  0  0  0  0  0  0
    8.3060   -5.6310    0.6010 C   0  0  0  0  0  3  0  0  0  0  0  0
    7.3200   -6.4340    1.1840 C   0  0  0  0  0  3  0  0  0  0  0  0
    6.0870   -6.6040    0.5470 C   0  0  0  0  0  0  0  0  0  0  0  0
    5.8830   -6.0160   -0.7080 C   0  0  0  0  0  3  0  0  0  0  0  0
    6.8740   -5.2180   -1.2930 C   0  0  0  0  0  3  0  0  0  0  0  0
    5.0390   -7.4260    1.1430 C   0  0  0  0  0  0  0  0  0  0  0  0
    4.5380   -8.4900    0.5430 N   0  0  0  0  0  0  0  0  0  0  0  0
    3.6120   -9.0260    1.3990 C   0  0  0  0  0  0  0  0  0  0  0  0
    2.8140  -10.1740    1.2610 C   0  0  0  0  0  3  0  0  0  0  0  0
    1.9260  -10.5400    2.2940 C   0  0  0  0  0  0  0  0  0  0  0  0
    1.8580   -9.7350    3.4440 C   0  0  0  0  0  3  0  0  0  0  0  0
    2.6440   -8.5870    3.5990 C   0  0  0  0  0  3  0  0  0  0  0  0
    3.5150   -8.2580    2.5530 C   0  0  0  0  0  0  0  0  0  0  0  0
    4.4180   -7.2210    2.3620 N   0  0  0  0  0  0  0  0  0  0  0  0
    4.6000   -6.1720    3.3430 C   0  0  0  0  0  3  0  0  0  0  0  0
    4.3080   -4.7690    2.8070 C   0  0  0  0  0  2  0  0  0  0  0  0
    4.1720   -3.8850    4.0490 C   0  0  0  0  0  2  0  0  0  0  0  0
    4.1450   -4.8280    5.2520 C   0  0  0  0  0  2  0  0  0  0  0  0
    3.8380   -6.2030    4.6690 C   0  0  0  0  0  2  0  0  0  0  0  0
    1.0590  -11.7790    2.1740 C   0  0  0  0  0  0  0  0  0  0  0  0
    1.4010  -12.6530    1.3170 O   0  0  0  0  0  0  0  0  0  0  0  0
    0.0490  -11.8540    2.9450 O   0  0  0  0  0  1  0  0  0  0  0  0
    9.1140   -4.2320   -1.0800 O   0  0  0  0  0  0  0  0  0  0  0  0
   10.0650   -3.7660   -0.1160 C   0  0  0  0  0  2  0  0  0  0  0  0
    9.5160    0.3140    1.2680 C   0  0  0  0  0  0  0  0  0  0  0  0
   10.0170    0.0530   -0.0160 C   0  0  0  0  0  3  0  0  0  0  0  0
   10.1690   -1.2590   -0.4790 C   0  0  0  0  0  3  0  0  0  0  0  0
    9.8150   -2.3470    0.3290 C   0  0  0  0  0  0  0  0  0  0  0  0
    9.3060   -2.0920    1.6110 C   0  0  0  0  0  3  0  0  0  0  0  0
    9.1540   -0.7790    2.0690 C   0  0  0  0  0  3  0  0  0  0  0  0
    9.1950    1.8850    3.0330 O   0  0  0  0  0  1  0  0  0  0  0  0
    9.3870    1.7360    1.7850 C   0  0  0  0  0  0  0  0  0  0  0  0
    9.4980    2.6770    0.9360 O   0  0  0  0  0  0  0  0  0  0  0  0
  1  2  1  0  0  0  0
  2  3  2  0  0  0  0
  4  7  1  0  0  0  0
  4  3  1  0  0  0  0
  5  4  2  0  0  0  0
  6  5  1  0  0  0  0
  6  1  2  0  0  0  0
  7 15  1  0  0  0  0
  8  7  2  0  0  0  0
  8  9  1  0  0  0  0
  9 14  1  0  0  0  0
 10  9  2  0  0  0  0
 10 11  1  0  0  0  0
 11 12  2  0  0  0  0
 12 13  1  0  0  0  0
 14 13  2  0  0  0  0
 15 14  1  0  0  0  0
 15 16  1  0  0  0  0
 16 20  1  0  0  0  0
 17 16  1  0  0  0  0
 17 18  1  0  0  0  0
 18 19  1  0  0  0  0
 20 19  1  0  0  0  0
 21 11  1  0  0  0  0
 21 23  1  0  0  0  0
 22 21  2  0  0  0  0
 24  1  1  0  0  0  0
 24 25  1  0  0  0  0
 25 29  1  0  0  0  0
 26 33  1  0  0  0  0
 26 31  1  0  0  0  0
 27 26  2  0  0  0  0
 28 27  1  0  0  0  0
 28 29  2  0  0  0  0
 29 30  1  0  0  0  0
 30 31  2  0  0  0  0
 33 32  1  0  0  0  0
 34 33  2  0  0  0  0
M  END
>  <minimizedAffinity>
-9.68254662

$$$$
