
 OpenBabel09122222393D

 33 36  0  0  0  0  0  0  0  0999 V2000
    5.2190   -9.6010    2.6280 C   0  0  0  0  0  0  0  0  0  0  0  0
    5.9900  -10.3750    3.2050 O   0  0  0  0  0  0  0  0  0  0  0  0
    4.0600  -10.0200    1.9430 N   0  0  0  0  0  0  0  0  0  0  0  0
    3.5900   -9.2000    0.9000 C   0  0  0  0  0  0  0  0  0  0  0  0
    4.2470   -8.1990    0.3560 N   0  0  0  0  0  0  0  0  0  0  0  0
    3.4620   -7.5800   -0.6020 C   0  0  0  0  0  3  0  0  0  0  0  0
    2.2190   -8.1340   -0.7940 C   0  0  0  0  0  0  0  0  0  0  0  0
    2.0280   -9.4750    0.2400 S   0  0  0  0  0  0  0  0  0  0  0  0
    6.0350   -5.4340    3.2080 C   0  0  0  0  0  0  0  0  0  0  0  0
    4.7670   -5.9550    3.4800 C   0  0  0  0  0  3  0  0  0  0  0  0
    4.5030   -7.3120    3.2830 C   0  0  0  0  0  3  0  0  0  0  0  0
    5.5140   -8.1540    2.8110 C   0  0  0  0  0  0  0  0  0  0  0  0
    6.7590   -7.6190    2.4610 C   0  0  0  0  0  3  0  0  0  0  0  0
    7.0200   -6.2600    2.6650 C   0  0  0  0  0  3  0  0  0  0  0  0
    6.1940   -4.1090    3.5240 O   0  0  0  0  0  0  0  0  0  0  0  0
    7.5320   -3.5890    3.5340 C   0  0  0  0  0  2  0  0  0  0  0  0
    8.5530   -3.7110   -0.1380 C   0  0  0  0  0  0  0  0  0  0  0  0
    9.0950   -2.4400   -0.3250 C   0  0  0  0  0  3  0  0  0  0  0  0
    9.0970   -1.5240    0.7270 C   0  0  0  0  0  3  0  0  0  0  0  0
    8.5730   -1.8820    1.9700 C   0  0  0  0  0  3  0  0  0  0  0  0
    8.0420   -3.1630    2.1760 C   0  0  0  0  0  0  0  0  0  0  0  0
    8.0020   -4.0590    1.0980 C   0  0  0  0  0  3  0  0  0  0  0  0
    7.1970   -5.2730   -1.2180 C   0  0  0  0  0  1  0  0  0  0  0  0
    8.4890   -4.6650   -1.1180 O   0  0  0  0  0  0  0  0  0  0  0  0
    3.5510  -11.3860    2.1980 C   0  0  0  0  0  3  0  0  0  0  0  0
    2.1930  -11.3790    2.9220 C   0  0  0  0  0  2  0  0  0  0  0  0
    1.7080  -12.7990    3.2170 C   0  0  0  0  0  2  0  0  0  0  0  0
    1.6720  -13.6560    1.9540 C   0  0  0  0  0  2  0  0  0  0  0  0
    3.0240  -13.6760    1.2470 C   0  0  0  0  0  2  0  0  0  0  0  0
    3.5150  -12.2640    0.9300 C   0  0  0  0  0  2  0  0  0  0  0  0
    1.2200   -7.6190   -1.7480 C   0  0  0  0  0  0  0  0  0  0  0  0
    1.6470   -6.9220   -2.7180 O   0  0  0  0  0  0  0  0  0  0  0  0
    0.0090   -7.9350   -1.5280 O   0  0  0  0  0  1  0  0  0  0  0  0
  1 12  1  0  0  0  0
  1  2  2  0  0  0  0
  3 25  1  0  0  0  0
  3  1  1  0  0  0  0
  4  3  1  0  0  0  0
  5  4  2  0  0  0  0
  6  5  1  0  0  0  0
  7  6  2  0  0  0  0
  7  8  1  0  0  0  0
  8  4  1  0  0  0  0
  9 10  1  0  0  0  0
  9 15  1  0  0  0  0
 11 10  2  0  0  0  0
 12 11  1  0  0  0  0
 13 14  1  0  0  0  0
 13 12  2  0  0  0  0
 14  9  2  0  0  0  0
 15 16  1  0  0  0  0
 17 22  1  0  0  0  0
 18 17  2  0  0  0  0
 18 19  1  0  0  0  0
 19 20  2  0  0  0  0
 20 21  1  0  0  0  0
 21 16  1  0  0  0  0
 22 21  2  0  0  0  0
 23 24  1  0  0  0  0
 24 17  1  0  0  0  0
 25 26  1  0  0  0  0
 26 27  1  0  0  0  0
 28 27  1  0  0  0  0
 29 28  1  0  0  0  0
 30 29  1  0  0  0  0
 30 25  1  0  0  0  0
 31 33  1  0  0  0  0
 31  7  1  0  0  0  0
 32 31  2  0  0  0  0
M  END
>  <minimizedAffinity>
4.41440439

$$$$
