
 OpenBabel09122218283D

 33 36  0  0  0  0  0  0  0  0999 V2000
    5.2190   -9.6010    2.6280 C   0  0  0  0  0  0  0  0  0  0  0  0
    5.9900  -10.3750    3.2050 O   0  0  0  0  0  0  0  0  0  0  0  0
    4.0600  -10.0200    1.9430 N   0  0  0  0  0  0  0  0  0  0  0  0
    3.5900   -9.2000    0.9000 C   0  0  0  0  0  0  0  0  0  0  0  0
    4.2470   -8.1990    0.3560 N   0  0  0  0  0  0  0  0  0  0  0  0
    3.4620   -7.5800   -0.6020 C   0  0  0  0  0  3  0  0  0  0  0  0
    2.2190   -8.1340   -0.7940 C   0  0  0  0  0  0  0  0  0  0  0  0
    2.0280   -9.4750    0.2400 S   0  0  0  0  0  0  0  0  0  0  0  0
    6.0350   -5.4340    3.2080 C   0  0  0  0  0  0  0  0  0  0  0  0
    4.7670   -5.9550    3.4800 C   0  0  0  0  0  3  0  0  0  0  0  0
    4.5030   -7.3120    3.2830 C   0  0  0  0  0  3  0  0  0  0  0  0
    5.5140   -8.1540    2.8110 C   0  0  0  0  0  0  0  0  0  0  0  0
    6.7590   -7.6190    2.4610 C   0  0  0  0  0  3  0  0  0  0  0  0
    7.0200   -6.2600    2.6650 C   0  0  0  0  0  3  0  0  0  0  0  0
    6.1940   -4.1090    3.5240 O   0  0  0  0  0  0  0  0  0  0  0  0
    7.5320   -3.5890    3.5340 C   0  0  0  0  0  2  0  0  0  0  0  0
    8.5530   -3.7110   -0.1380 C   0  0  0  0  0  0  0  0  0  0  0  0
    9.0950   -2.4400   -0.3250 C   0  0  0  0  0  3  0  0  0  0  0  0
    9.0970   -1.5240    0.7270 C   0  0  0  0  0  3  0  0  0  0  0  0
    8.5730   -1.8820    1.9700 C   0  0  0  0  0  3  0  0  0  0  0  0
    8.0420   -3.1630    2.1760 C   0  0  0  0  0  0  0  0  0  0  0  0
    8.0020   -4.0590    1.0980 C   0  0  0  0  0  3  0  0  0  0  0  0
    7.1970   -5.2730   -1.2180 C   0  0  0  0  0  1  0  0  0  0  0  0
    8.4890   -4.6650   -1.1180 O   0  0  0  0  0  0  0  0  0  0  0  0
    3.5510  -11.3860    2.1980 C   0  0  0  0  0  3  0  0  0  0  0  0
    2.1930  -11.3790    2.9220 C   0  0  0  0  0  2  0  0  0  0  0  0
    1.7080  -12.7990    3.2170 C   0  0  0  0  0  2  0  0  0  0  0  0
    1.6720  -13.6560    1.9540 C   0  0  0  0  0  2  0  0  0  0  0  0
    3.0240  -13.6760    1.2470 C   0  0  0  0  0  2  0  0  0  0  0  0
    3.5150  -12.2640    0.9300 C   0  0  0  0  0  2  0  0  0  0  0  0
    1.2200   -7.6190   -1.7480 C   0  0  0  0  0  0  0  0  0  0  0  0
    1.6470   -6.9220   -2.7180 O   0  0  0  0  0  0  0  0  0  0  0  0
    0.0090   -7.9350   -1.5280 O   0  0  0  0  0  1  0  0  0  0  0  0
  1 12  1  0  0  0  0
  1  2  2  0  0  0  0
  3 25  1  0  0  0  0
  3  1  1  0  0  0  0
  4  3  1  0  0  0  0
  5  4  2  0  0  0  0
  6  5  1  0  0  0  0
  7  6  2  0  0  0  0
  7  8  1  0  0  0  0
  8  4  1  0  0  0  0
  9 10  1  0  0  0  0
  9 15  1  0  0  0  0
 11 10  2  0  0  0  0
 12 11  1  0  0  0  0
 13 14  1  0  0  0  0
 13 12  2  0  0  0  0
 14  9  2  0  0  0  0
 15 16  1  0  0  0  0
 17 22  1  0  0  0  0
 18 17  2  0  0  0  0
 18 19  1  0  0  0  0
 19 20  2  0  0  0  0
 20 21  1  0  0  0  0
 21 16  1  0  0  0  0
 22 21  2  0  0  0  0
 23 24  1  0  0  0  0
 24 17  1  0  0  0  0
 25 26  1  0  0  0  0
 26 27  1  0  0  0  0
 28 27  1  0  0  0  0
 29 28  1  0  0  0  0
 30 29  1  0  0  0  0
 30 25  1  0  0  0  0
 31 33  1  0  0  0  0
 31  7  1  0  0  0  0
 32 31  2  0  0  0  0
M  END
>  <minimizedAffinity>
4.41440439

$$$$

 OpenBabel09122218283D

 33 36  0  0  0  0  0  0  0  0999 V2000
    5.6920   -8.4390    2.7110 C   0  0  0  0  0  0  0  0  0  0  0  0
    6.5060   -8.1440    3.5910 O   0  0  0  0  0  0  0  0  0  0  0  0
    5.5310   -7.7030    1.5190 N   0  0  0  0  0  0  0  0  0  0  0  0
    4.2770   -7.7620    0.8840 C   0  0  0  0  0  0  0  0  0  0  0  0
    3.1750   -8.2550    1.4060 N   0  0  0  0  0  0  0  0  0  0  0  0
    2.1450   -8.2020    0.4810 C   0  0  0  0  0  3  0  0  0  0  0  0
    2.4700   -7.6450   -0.7320 C   0  0  0  0  0  0  0  0  0  0  0  0
    4.1040   -7.1590   -0.7160 S   0  0  0  0  0  0  0  0  0  0  0  0
    3.6440  -12.1500    3.3410 C   0  0  0  0  0  0  0  0  0  0  0  0
    5.0130  -12.1320    3.0610 C   0  0  0  0  0  3  0  0  0  0  0  0
    5.6760  -10.9210    2.8500 C   0  0  0  0  0  3  0  0  0  0  0  0
    4.9640   -9.7200    2.9190 C   0  0  0  0  0  0  0  0  0  0  0  0
    3.5790   -9.7410    3.1180 C   0  0  0  0  0  3  0  0  0  0  0  0
    2.9210  -10.9560    3.3340 C   0  0  0  0  0  3  0  0  0  0  0  0
    3.1280  -13.3900    3.6160 O   0  0  0  0  0  0  0  0  0  0  0  0
    2.2750  -13.9850    2.6260 C   0  0  0  0  0  2  0  0  0  0  0  0
    2.4560  -13.8650   -1.1810 C   0  0  0  0  0  0  0  0  0  0  0  0
    3.8280  -13.9770   -1.4040 C   0  0  0  0  0  3  0  0  0  0  0  0
    4.7040  -14.0540   -0.3220 C   0  0  0  0  0  3  0  0  0  0  0  0
    4.2100  -14.0340    0.9840 C   0  0  0  0  0  3  0  0  0  0  0  0
    2.8310  -13.9400    1.2200 C   0  0  0  0  0  0  0  0  0  0  0  0
    1.9640  -13.8160    0.1250 C   0  0  0  0  0  3  0  0  0  0  0  0
    2.0840  -13.9710   -3.4830 C   0  0  0  0  0  1  0  0  0  0  0  0
    1.5260  -13.7620   -2.1810 O   0  0  0  0  0  0  0  0  0  0  0  0
    6.5920   -6.7440    1.1390 C   0  0  0  0  0  3  0  0  0  0  0  0
    6.6100   -6.4600   -0.3740 C   0  0  0  0  0  2  0  0  0  0  0  0
    7.7420   -5.5040   -0.7500 C   0  0  0  0  0  2  0  0  0  0  0  0
    7.6880   -4.2150    0.0670 C   0  0  0  0  0  2  0  0  0  0  0  0
    7.6880   -4.4980    1.5660 C   0  0  0  0  0  2  0  0  0  0  0  0
    6.5510   -5.4400    1.9610 C   0  0  0  0  0  2  0  0  0  0  0  0
    1.5310   -7.5090   -1.8610 C   0  0  0  0  0  0  0  0  0  0  0  0
    0.3150   -7.7990   -1.6430 O   0  0  0  0  0  1  0  0  0  0  0  0
    2.0180   -7.0930   -2.9580 O   0  0  0  0  0  0  0  0  0  0  0  0
  1 12  1  0  0  0  0
  1  2  2  0  0  0  0
  3  1  1  0  0  0  0
  4  5  2  0  0  0  0
  4  3  1  0  0  0  0
  6  5  1  0  0  0  0
  7  8  1  0  0  0  0
  7  6  2  0  0  0  0
  8  4  1  0  0  0  0
  9 15  1  0  0  0  0
 10  9  2  0  0  0  0
 11 12  2  0  0  0  0
 11 10  1  0  0  0  0
 12 13  1  0  0  0  0
 13 14  2  0  0  0  0
 14  9  1  0  0  0  0
 16 15  1  0  0  0  0
 17 22  1  0  0  0  0
 18 17  2  0  0  0  0
 18 19  1  0  0  0  0
 19 20  2  0  0  0  0
 20 21  1  0  0  0  0
 21 16  1  0  0  0  0
 22 21  2  0  0  0  0
 23 24  1  0  0  0  0
 24 17  1  0  0  0  0
 25  3  1  0  0  0  0
 25 30  1  0  0  0  0
 26 25  1  0  0  0  0
 27 26  1  0  0  0  0
 27 28  1  0  0  0  0
 28 29  1  0  0  0  0
 29 30  1  0  0  0  0
 31 32  1  0  0  0  0
 31  7  1  0  0  0  0
 33 31  2  0  0  0  0
M  END
>  <minimizedAffinity>
5.96105051

$$$$

 OpenBabel09122218283D

 33 36  0  0  0  0  0  0  0  0999 V2000
    5.6990   -8.6010    2.5740 C   0  0  0  0  0  0  0  0  0  0  0  0
    6.5550   -8.3250    3.4200 O   0  0  0  0  0  0  0  0  0  0  0  0
    5.5220   -7.8780    1.3770 N   0  0  0  0  0  0  0  0  0  0  0  0
    4.2440   -7.9000    0.7890 C   0  0  0  0  0  0  0  0  0  0  0  0
    3.1440   -8.3430    1.3580 N   0  0  0  0  0  0  0  0  0  0  0  0
    2.0840   -8.2660    0.4710 C   0  0  0  0  0  3  0  0  0  0  0  0
    2.3850   -7.7400   -0.7630 C   0  0  0  0  0  0  0  0  0  0  0  0
    4.0350   -7.3150   -0.8130 S   0  0  0  0  0  0  0  0  0  0  0  0
    3.5430  -12.2280    3.3310 C   0  0  0  0  0  0  0  0  0  0  0  0
    4.8400  -12.2660    2.8130 C   0  0  0  0  0  3  0  0  0  0  0  0
    5.5380  -11.0830    2.5620 C   0  0  0  0  0  3  0  0  0  0  0  0
    4.9330   -9.8510    2.8290 C   0  0  0  0  0  0  0  0  0  0  0  0
    3.6050   -9.8080    3.2700 C   0  0  0  0  0  3  0  0  0  0  0  0
    2.9140  -10.9970    3.5250 C   0  0  0  0  0  3  0  0  0  0  0  0
    2.9990  -13.4530    3.6160 O   0  0  0  0  0  0  0  0  0  0  0  0
    1.8790  -13.8780    2.8250 C   0  0  0  0  0  2  0  0  0  0  0  0
    3.0140  -13.3970   -0.7830 C   0  0  0  0  0  0  0  0  0  0  0  0
    2.0900  -12.4620   -1.2490 C   0  0  0  0  0  3  0  0  0  0  0  0
    1.0720  -12.0120   -0.4090 C   0  0  0  0  0  3  0  0  0  0  0  0
    0.9850  -12.4830    0.9020 C   0  0  0  0  0  3  0  0  0  0  0  0
    1.9190  -13.4090    1.3890 C   0  0  0  0  0  0  0  0  0  0  0  0
    2.9100  -13.8900    0.5200 C   0  0  0  0  0  3  0  0  0  0  0  0
    5.2610  -14.0250   -0.8210 C   0  0  0  0  0  1  0  0  0  0  0  0
    4.0300  -13.9100   -1.5430 O   0  0  0  0  0  0  0  0  0  0  0  0
    6.6030   -6.9650    0.9440 C   0  0  0  0  0  3  0  0  0  0  0  0
    6.4380   -6.5160   -0.5200 C   0  0  0  0  0  2  0  0  0  0  0  0
    7.5890   -5.6120   -0.9600 C   0  0  0  0  0  2  0  0  0  0  0  0
    7.7650   -4.4230   -0.0200 C   0  0  0  0  0  2  0  0  0  0  0  0
    7.9460   -4.8710    1.4280 C   0  0  0  0  0  2  0  0  0  0  0  0
    6.7940   -5.7620    1.8890 C   0  0  0  0  0  2  0  0  0  0  0  0
    1.4110   -7.5860   -1.8590 C   0  0  0  0  0  0  0  0  0  0  0  0
    1.8590   -7.2250   -2.9890 O   0  0  0  0  0  0  0  0  0  0  0  0
    0.1990   -7.8500   -1.5820 O   0  0  0  0  0  1  0  0  0  0  0  0
  1 12  1  0  0  0  0
  1  2  2  0  0  0  0
  3  1  1  0  0  0  0
  4  5  2  0  0  0  0
  4  3  1  0  0  0  0
  6  5  1  0  0  0  0
  7  6  2  0  0  0  0
  8  7  1  0  0  0  0
  8  4  1  0  0  0  0
  9 14  1  0  0  0  0
  9 15  1  0  0  0  0
 10  9  2  0  0  0  0
 11 10  1  0  0  0  0
 11 12  2  0  0  0  0
 12 13  1  0  0  0  0
 13 14  2  0  0  0  0
 16 15  1  0  0  0  0
 17 22  1  0  0  0  0
 18 17  2  0  0  0  0
 18 19  1  0  0  0  0
 19 20  2  0  0  0  0
 20 21  1  0  0  0  0
 21 16  1  0  0  0  0
 22 21  2  0  0  0  0
 24 23  1  0  0  0  0
 24 17  1  0  0  0  0
 25  3  1  0  0  0  0
 25 30  1  0  0  0  0
 26 25  1  0  0  0  0
 27 26  1  0  0  0  0
 27 28  1  0  0  0  0
 28 29  1  0  0  0  0
 29 30  1  0  0  0  0
 31 33  1  0  0  0  0
 31  7  1  0  0  0  0
 32 31  2  0  0  0  0
M  END
>  <minimizedAffinity>
6.25856209

$$$$

 OpenBabel09122218283D

 33 36  0  0  0  0  0  0  0  0999 V2000
    6.0560   -8.2280    2.5520 C   0  0  0  0  0  0  0  0  0  0  0  0
    6.8470   -7.8730    3.4310 O   0  0  0  0  0  0  0  0  0  0  0  0
    5.5680   -7.3690    1.5460 N   0  0  0  0  0  0  0  0  0  0  0  0
    4.3190   -7.6770    0.9780 C   0  0  0  0  0  0  0  0  0  0  0  0
    3.4610   -8.5570    1.4430 N   0  0  0  0  0  0  0  0  0  0  0  0
    2.3630   -8.6420    0.6040 C   0  0  0  0  0  3  0  0  0  0  0  0
    2.3870   -7.8030   -0.4850 C   0  0  0  0  0  0  0  0  0  0  0  0
    3.8130   -6.8710   -0.4530 S   0  0  0  0  0  0  0  0  0  0  0  0
    5.1300  -12.4130    2.5470 C   0  0  0  0  0  0  0  0  0  0  0  0
    5.8250  -11.8390    3.6150 C   0  0  0  0  0  3  0  0  0  0  0  0
    6.1320  -10.4770    3.6100 C   0  0  0  0  0  3  0  0  0  0  0  0
    5.7390   -9.6820    2.5300 C   0  0  0  0  0  0  0  0  0  0  0  0
    5.1160  -10.2690    1.4230 C   0  0  0  0  0  3  0  0  0  0  0  0
    4.8070  -11.6340    1.4350 C   0  0  0  0  0  3  0  0  0  0  0  0
    4.8140  -13.7370    2.7090 O   0  0  0  0  0  0  0  0  0  0  0  0
    3.4590  -14.0540    3.0620 C   0  0  0  0  0  2  0  0  0  0  0  0
    1.4650  -12.8490    0.0440 C   0  0  0  0  0  0  0  0  0  0  0  0
    0.5730  -11.9520    0.6310 C   0  0  0  0  0  3  0  0  0  0  0  0
    0.5880  -11.7630    2.0130 C   0  0  0  0  0  3  0  0  0  0  0  0
    1.5040  -12.4560    2.8070 C   0  0  0  0  0  3  0  0  0  0  0  0
    2.4180  -13.3460    2.2250 C   0  0  0  0  0  0  0  0  0  0  0  0
    2.3620  -13.5640    0.8410 C   0  0  0  0  0  3  0  0  0  0  0  0
    2.7800  -13.6090   -1.7290 C   0  0  0  0  0  1  0  0  0  0  0  0
    1.5070  -13.1140   -1.2990 O   0  0  0  0  0  0  0  0  0  0  0  0
    6.2740   -6.0880    1.3170 C   0  0  0  0  0  3  0  0  0  0  0  0
    6.2090   -5.1570    2.5420 C   0  0  0  0  0  2  0  0  0  0  0  0
    6.9030   -3.8230    2.2680 C   0  0  0  0  0  2  0  0  0  0  0  0
    8.3370   -4.0210    1.7840 C   0  0  0  0  0  2  0  0  0  0  0  0
    8.3990   -4.9310    0.5600 C   0  0  0  0  0  2  0  0  0  0  0  0
    7.7230   -6.2750    0.8230 C   0  0  0  0  0  2  0  0  0  0  0  0
    1.3300   -7.7470   -1.5120 C   0  0  0  0  0  0  0  0  0  0  0  0
    0.1960   -8.2240   -1.2060 O   0  0  0  0  0  1  0  0  0  0  0  0
    1.6420   -7.2030   -2.6170 O   0  0  0  0  0  0  0  0  0  0  0  0
  1  2  2  0  0  0  0
  3  1  1  0  0  0  0
  4  5  2  0  0  0  0
  4  3  1  0  0  0  0
  6  5  1  0  0  0  0
  7  8  1  0  0  0  0
  7  6  2  0  0  0  0
  8  4  1  0  0  0  0
  9 15  1  0  0  0  0
  9 10  1  0  0  0  0
 11 10  2  0  0  0  0
 12  1  1  0  0  0  0
 12 11  1  0  0  0  0
 13 14  1  0  0  0  0
 13 12  2  0  0  0  0
 14  9  2  0  0  0  0
 15 16  1  0  0  0  0
 17 18  2  0  0  0  0
 17 22  1  0  0  0  0
 18 19  1  0  0  0  0
 19 20  2  0  0  0  0
 21 20  1  0  0  0  0
 21 16  1  0  0  0  0
 22 21  2  0  0  0  0
 23 24  1  0  0  0  0
 24 17  1  0  0  0  0
 25  3  1  0  0  0  0
 25 26  1  0  0  0  0
 27 26  1  0  0  0  0
 28 27  1  0  0  0  0
 29 30  1  0  0  0  0
 29 28  1  0  0  0  0
 30 25  1  0  0  0  0
 31 32  1  0  0  0  0
 31  7  1  0  0  0  0
 33 31  2  0  0  0  0
M  END
>  <minimizedAffinity>
6.9852767

$$$$

 OpenBabel09122218283D

 33 36  0  0  0  0  0  0  0  0999 V2000
    3.3170   -7.1120    3.2330 C   0  0  0  0  0  0  0  0  0  0  0  0
    2.1320   -7.0580    3.5760 O   0  0  0  0  0  0  0  0  0  0  0  0
    4.1080   -5.9740    2.9750 N   0  0  0  0  0  0  0  0  0  0  0  0
    5.1940   -6.1250    2.0930 C   0  0  0  0  0  0  0  0  0  0  0  0
    5.4130   -7.1620    1.3150 N   0  0  0  0  0  0  0  0  0  0  0  0
    6.6020   -6.9970    0.6240 C   0  0  0  0  0  3  0  0  0  0  0  0
    7.2660   -5.8180    0.8680 C   0  0  0  0  0  0  0  0  0  0  0  0
    6.3750   -4.8820    1.9790 S   0  0  0  0  0  0  0  0  0  0  0  0
    5.1000  -11.0100    3.2710 C   0  0  0  0  0  0  0  0  0  0  0  0
    5.8810   -9.8720    3.0550 C   0  0  0  0  0  3  0  0  0  0  0  0
    5.2960   -8.6040    3.0360 C   0  0  0  0  0  3  0  0  0  0  0  0
    3.9190   -8.4730    3.2350 C   0  0  0  0  0  0  0  0  0  0  0  0
    3.1230   -9.6160    3.3700 C   0  0  0  0  0  3  0  0  0  0  0  0
    3.7150  -10.8830    3.3930 C   0  0  0  0  0  3  0  0  0  0  0  0
    5.8010  -12.1850    3.3540 O   0  0  0  0  0  0  0  0  0  0  0  0
    5.1560  -13.3750    2.8760 C   0  0  0  0  0  2  0  0  0  0  0  0
    2.1650  -12.7030    0.6080 C   0  0  0  0  0  0  0  0  0  0  0  0
    2.7160  -12.9040   -0.6570 C   0  0  0  0  0  3  0  0  0  0  0  0
    4.0690  -13.2210   -0.7830 C   0  0  0  0  0  3  0  0  0  0  0  0
    4.8680  -13.3520    0.3540 C   0  0  0  0  0  3  0  0  0  0  0  0
    4.3210  -13.1710    1.6320 C   0  0  0  0  0  0  0  0  0  0  0  0
    2.9710  -12.8060    1.7440 C   0  0  0  0  0  3  0  0  0  0  0  0
    0.5790  -12.0640    2.1960 C   0  0  0  0  0  1  0  0  0  0  0  0
    0.8550  -12.3680    0.8250 O   0  0  0  0  0  0  0  0  0  0  0  0
    3.6210   -4.6600    3.4510 C   0  0  0  0  0  3  0  0  0  0  0  0
    4.5650   -3.5090    3.0590 C   0  0  0  0  0  2  0  0  0  0  0  0
    4.0670   -2.1690    3.6000 C   0  0  0  0  0  2  0  0  0  0  0  0
    2.6270   -1.8890    3.1780 C   0  0  0  0  0  2  0  0  0  0  0  0
    1.6900   -3.0230    3.5830 C   0  0  0  0  0  2  0  0  0  0  0  0
    2.1650   -4.3680    3.0350 C   0  0  0  0  0  2  0  0  0  0  0  0
    8.5560   -5.4510    0.2530 C   0  0  0  0  0  0  0  0  0  0  0  0
    9.0980   -6.3040   -0.5130 O   0  0  0  0  0  0  0  0  0  0  0  0
    9.0080   -4.2960    0.5310 O   0  0  0  0  0  1  0  0  0  0  0  0
  1 12  1  0  0  0  0
  1  2  2  0  0  0  0
  3  1  1  0  0  0  0
  3 25  1  0  0  0  0
  4  3  1  0  0  0  0
  5  4  2  0  0  0  0
  6  7  2  0  0  0  0
  6  5  1  0  0  0  0
  7  8  1  0  0  0  0
  8  4  1  0  0  0  0
  9 15  1  0  0  0  0
  9 14  1  0  0  0  0
 10  9  2  0  0  0  0
 11 10  1  0  0  0  0
 11 12  2  0  0  0  0
 12 13  1  0  0  0  0
 13 14  2  0  0  0  0
 16 15  1  0  0  0  0
 17 24  1  0  0  0  0
 17 22  1  0  0  0  0
 18 17  2  0  0  0  0
 19 18  1  0  0  0  0
 19 20  2  0  0  0  0
 20 21  1  0  0  0  0
 21 22  2  0  0  0  0
 21 16  1  0  0  0  0
 24 23  1  0  0  0  0
 26 25  1  0  0  0  0
 26 27  1  0  0  0  0
 28 29  1  0  0  0  0
 28 27  1  0  0  0  0
 30 25  1  0  0  0  0
 30 29  1  0  0  0  0
 31 33  1  0  0  0  0
 31  7  1  0  0  0  0
 32 31  2  0  0  0  0
M  END
>  <minimizedAffinity>
7.36795378

$$$$
