
 OpenBabel09122222393D

 33 36  0  0  0  0  0  0  0  0999 V2000
    6.0560   -8.2280    2.5520 C   0  0  0  0  0  0  0  0  0  0  0  0
    6.8470   -7.8730    3.4310 O   0  0  0  0  0  0  0  0  0  0  0  0
    5.5680   -7.3690    1.5460 N   0  0  0  0  0  0  0  0  0  0  0  0
    4.3190   -7.6770    0.9780 C   0  0  0  0  0  0  0  0  0  0  0  0
    3.4610   -8.5570    1.4430 N   0  0  0  0  0  0  0  0  0  0  0  0
    2.3630   -8.6420    0.6040 C   0  0  0  0  0  3  0  0  0  0  0  0
    2.3870   -7.8030   -0.4850 C   0  0  0  0  0  0  0  0  0  0  0  0
    3.8130   -6.8710   -0.4530 S   0  0  0  0  0  0  0  0  0  0  0  0
    5.1300  -12.4130    2.5470 C   0  0  0  0  0  0  0  0  0  0  0  0
    5.8250  -11.8390    3.6150 C   0  0  0  0  0  3  0  0  0  0  0  0
    6.1320  -10.4770    3.6100 C   0  0  0  0  0  3  0  0  0  0  0  0
    5.7390   -9.6820    2.5300 C   0  0  0  0  0  0  0  0  0  0  0  0
    5.1160  -10.2690    1.4230 C   0  0  0  0  0  3  0  0  0  0  0  0
    4.8070  -11.6340    1.4350 C   0  0  0  0  0  3  0  0  0  0  0  0
    4.8140  -13.7370    2.7090 O   0  0  0  0  0  0  0  0  0  0  0  0
    3.4590  -14.0540    3.0620 C   0  0  0  0  0  2  0  0  0  0  0  0
    1.4650  -12.8490    0.0440 C   0  0  0  0  0  0  0  0  0  0  0  0
    0.5730  -11.9520    0.6310 C   0  0  0  0  0  3  0  0  0  0  0  0
    0.5880  -11.7630    2.0130 C   0  0  0  0  0  3  0  0  0  0  0  0
    1.5040  -12.4560    2.8070 C   0  0  0  0  0  3  0  0  0  0  0  0
    2.4180  -13.3460    2.2250 C   0  0  0  0  0  0  0  0  0  0  0  0
    2.3620  -13.5640    0.8410 C   0  0  0  0  0  3  0  0  0  0  0  0
    2.7800  -13.6090   -1.7290 C   0  0  0  0  0  1  0  0  0  0  0  0
    1.5070  -13.1140   -1.2990 O   0  0  0  0  0  0  0  0  0  0  0  0
    6.2740   -6.0880    1.3170 C   0  0  0  0  0  3  0  0  0  0  0  0
    6.2090   -5.1570    2.5420 C   0  0  0  0  0  2  0  0  0  0  0  0
    6.9030   -3.8230    2.2680 C   0  0  0  0  0  2  0  0  0  0  0  0
    8.3370   -4.0210    1.7840 C   0  0  0  0  0  2  0  0  0  0  0  0
    8.3990   -4.9310    0.5600 C   0  0  0  0  0  2  0  0  0  0  0  0
    7.7230   -6.2750    0.8230 C   0  0  0  0  0  2  0  0  0  0  0  0
    1.3300   -7.7470   -1.5120 C   0  0  0  0  0  0  0  0  0  0  0  0
    0.1960   -8.2240   -1.2060 O   0  0  0  0  0  1  0  0  0  0  0  0
    1.6420   -7.2030   -2.6170 O   0  0  0  0  0  0  0  0  0  0  0  0
  1  2  2  0  0  0  0
  3  1  1  0  0  0  0
  4  5  2  0  0  0  0
  4  3  1  0  0  0  0
  6  5  1  0  0  0  0
  7  8  1  0  0  0  0
  7  6  2  0  0  0  0
  8  4  1  0  0  0  0
  9 15  1  0  0  0  0
  9 10  1  0  0  0  0
 11 10  2  0  0  0  0
 12  1  1  0  0  0  0
 12 11  1  0  0  0  0
 13 14  1  0  0  0  0
 13 12  2  0  0  0  0
 14  9  2  0  0  0  0
 15 16  1  0  0  0  0
 17 18  2  0  0  0  0
 17 22  1  0  0  0  0
 18 19  1  0  0  0  0
 19 20  2  0  0  0  0
 21 20  1  0  0  0  0
 21 16  1  0  0  0  0
 22 21  2  0  0  0  0
 23 24  1  0  0  0  0
 24 17  1  0  0  0  0
 25  3  1  0  0  0  0
 25 26  1  0  0  0  0
 27 26  1  0  0  0  0
 28 27  1  0  0  0  0
 29 30  1  0  0  0  0
 29 28  1  0  0  0  0
 30 25  1  0  0  0  0
 31 32  1  0  0  0  0
 31  7  1  0  0  0  0
 33 31  2  0  0  0  0
M  END
>  <minimizedAffinity>
6.9852767

$$$$
