
 OpenBabel09122222393D

 33 36  0  0  0  0  0  0  0  0999 V2000
    5.6920   -8.4390    2.7110 C   0  0  0  0  0  0  0  0  0  0  0  0
    6.5060   -8.1440    3.5910 O   0  0  0  0  0  0  0  0  0  0  0  0
    5.5310   -7.7030    1.5190 N   0  0  0  0  0  0  0  0  0  0  0  0
    4.2770   -7.7620    0.8840 C   0  0  0  0  0  0  0  0  0  0  0  0
    3.1750   -8.2550    1.4060 N   0  0  0  0  0  0  0  0  0  0  0  0
    2.1450   -8.2020    0.4810 C   0  0  0  0  0  3  0  0  0  0  0  0
    2.4700   -7.6450   -0.7320 C   0  0  0  0  0  0  0  0  0  0  0  0
    4.1040   -7.1590   -0.7160 S   0  0  0  0  0  0  0  0  0  0  0  0
    3.6440  -12.1500    3.3410 C   0  0  0  0  0  0  0  0  0  0  0  0
    5.0130  -12.1320    3.0610 C   0  0  0  0  0  3  0  0  0  0  0  0
    5.6760  -10.9210    2.8500 C   0  0  0  0  0  3  0  0  0  0  0  0
    4.9640   -9.7200    2.9190 C   0  0  0  0  0  0  0  0  0  0  0  0
    3.5790   -9.7410    3.1180 C   0  0  0  0  0  3  0  0  0  0  0  0
    2.9210  -10.9560    3.3340 C   0  0  0  0  0  3  0  0  0  0  0  0
    3.1280  -13.3900    3.6160 O   0  0  0  0  0  0  0  0  0  0  0  0
    2.2750  -13.9850    2.6260 C   0  0  0  0  0  2  0  0  0  0  0  0
    2.4560  -13.8650   -1.1810 C   0  0  0  0  0  0  0  0  0  0  0  0
    3.8280  -13.9770   -1.4040 C   0  0  0  0  0  3  0  0  0  0  0  0
    4.7040  -14.0540   -0.3220 C   0  0  0  0  0  3  0  0  0  0  0  0
    4.2100  -14.0340    0.9840 C   0  0  0  0  0  3  0  0  0  0  0  0
    2.8310  -13.9400    1.2200 C   0  0  0  0  0  0  0  0  0  0  0  0
    1.9640  -13.8160    0.1250 C   0  0  0  0  0  3  0  0  0  0  0  0
    2.0840  -13.9710   -3.4830 C   0  0  0  0  0  1  0  0  0  0  0  0
    1.5260  -13.7620   -2.1810 O   0  0  0  0  0  0  0  0  0  0  0  0
    6.5920   -6.7440    1.1390 C   0  0  0  0  0  3  0  0  0  0  0  0
    6.6100   -6.4600   -0.3740 C   0  0  0  0  0  2  0  0  0  0  0  0
    7.7420   -5.5040   -0.7500 C   0  0  0  0  0  2  0  0  0  0  0  0
    7.6880   -4.2150    0.0670 C   0  0  0  0  0  2  0  0  0  0  0  0
    7.6880   -4.4980    1.5660 C   0  0  0  0  0  2  0  0  0  0  0  0
    6.5510   -5.4400    1.9610 C   0  0  0  0  0  2  0  0  0  0  0  0
    1.5310   -7.5090   -1.8610 C   0  0  0  0  0  0  0  0  0  0  0  0
    0.3150   -7.7990   -1.6430 O   0  0  0  0  0  1  0  0  0  0  0  0
    2.0180   -7.0930   -2.9580 O   0  0  0  0  0  0  0  0  0  0  0  0
  1 12  1  0  0  0  0
  1  2  2  0  0  0  0
  3  1  1  0  0  0  0
  4  5  2  0  0  0  0
  4  3  1  0  0  0  0
  6  5  1  0  0  0  0
  7  8  1  0  0  0  0
  7  6  2  0  0  0  0
  8  4  1  0  0  0  0
  9 15  1  0  0  0  0
 10  9  2  0  0  0  0
 11 12  2  0  0  0  0
 11 10  1  0  0  0  0
 12 13  1  0  0  0  0
 13 14  2  0  0  0  0
 14  9  1  0  0  0  0
 16 15  1  0  0  0  0
 17 22  1  0  0  0  0
 18 17  2  0  0  0  0
 18 19  1  0  0  0  0
 19 20  2  0  0  0  0
 20 21  1  0  0  0  0
 21 16  1  0  0  0  0
 22 21  2  0  0  0  0
 23 24  1  0  0  0  0
 24 17  1  0  0  0  0
 25  3  1  0  0  0  0
 25 30  1  0  0  0  0
 26 25  1  0  0  0  0
 27 26  1  0  0  0  0
 27 28  1  0  0  0  0
 28 29  1  0  0  0  0
 29 30  1  0  0  0  0
 31 32  1  0  0  0  0
 31  7  1  0  0  0  0
 33 31  2  0  0  0  0
M  END
>  <minimizedAffinity>
5.96105051

$$$$
