
 OpenBabel09122222393D

 15 15  0  0  0  0  0  0  0  0999 V2000
    9.4010   -0.7100    1.6690 C   0  0  0  0  0  0  0  0  0  0  0  0
    8.7670   -1.6570    2.3760 C   0  0  0  0  0  3  0  0  0  0  0  0
    8.7610   -3.0330    1.8720 C   0  0  0  0  0  0  0  0  0  0  0  0
    8.1930   -3.9490    2.4710 O   0  0  0  0  0  0  0  0  0  0  0  0
    9.4680   -3.3090    0.5970 C   0  0  0  0  0  0  0  0  0  0  0  0
   10.0660   -2.2830   -0.0230 C   0  0  0  0  0  0  0  0  0  0  0  0
   10.0580   -0.9740    0.4660 O   0  0  0  0  0  0  0  0  0  0  0  0
    9.7880    0.8770    3.4190 O   0  0  0  0  0  1  0  0  0  0  0  0
    9.4030    0.7470    2.2130 C   0  0  0  0  0  0  0  0  0  0  0  0
    9.0170    1.6550    1.4230 O   0  0  0  0  0  0  0  0  0  0  0  0
   10.8070   -2.5320   -1.3410 C   0  0  0  0  0  0  0  0  0  0  0  0
   11.3090   -3.6900   -1.4810 O   0  0  0  0  0  1  0  0  0  0  0  0
   10.8490   -1.5500   -2.1430 O   0  0  0  0  0  0  0  0  0  0  0  0
    9.4540   -4.6160    0.1440 O   0  0  0  0  0  0  0  0  0  0  0  0
    8.9370   -5.0910    0.8230 H   0  0  0  0  0  0  0  0  0  0  0  0
  1  9  1  0  0  0  0
  1  2  2  0  0  0  0
  3  2  1  0  0  0  0
  3  4  2  0  0  0  0
  5  3  1  0  0  0  0
  6  7  1  0  0  0  0
  6  5  2  0  0  0  0
  7  1  1  0  0  0  0
  9  8  1  0  0  0  0
 10  9  2  0  0  0  0
 11  6  1  0  0  0  0
 12 11  1  0  0  0  0
 13 11  2  0  0  0  0
 14  5  1  0  0  0  0
 14 15  1  0  0  0  0
M  END
>  <minimizedAffinity>
-5.58641291

$$$$
