
 OpenBabel09122222393D

 15 15  0  0  0  0  0  0  0  0999 V2000
    9.6550   -1.9930    2.7980 C   0  0  0  0  0  0  0  0  0  0  0  0
    9.3480   -0.6880    2.8350 C   0  0  0  0  0  3  0  0  0  0  0  0
    9.3690    0.0810    1.5880 C   0  0  0  0  0  0  0  0  0  0  0  0
    9.1000    1.2840    1.5540 O   0  0  0  0  0  0  0  0  0  0  0  0
    9.7270   -0.6330    0.3370 C   0  0  0  0  0  0  0  0  0  0  0  0
   10.0150   -1.9380    0.4230 C   0  0  0  0  0  0  0  0  0  0  0  0
    9.9980   -2.6570    1.6200 O   0  0  0  0  0  0  0  0  0  0  0  0
    8.5950   -3.5220    4.3050 O   0  0  0  0  0  0  0  0  0  0  0  0
    9.6280   -2.8000    4.1270 C   0  0  0  0  0  0  0  0  0  0  0  0
   10.6150   -2.6600    4.9030 O   0  0  0  0  0  1  0  0  0  0  0  0
   10.3880   -2.7080   -0.8490 C   0  0  0  0  0  0  0  0  0  0  0  0
   11.0800   -2.0670   -1.6990 O   0  0  0  0  0  0  0  0  0  0  0  0
    9.9520   -3.8980   -0.9210 O   0  0  0  0  0  1  0  0  0  0  0  0
    9.7340    0.1120   -0.8290 O   0  0  0  0  0  0  0  0  0  0  0  0
    9.4840    1.0080   -0.5320 H   0  0  0  0  0  0  0  0  0  0  0  0
  1  2  2  0  0  0  0
  1  9  1  0  0  0  0
  3  2  1  0  0  0  0
  4  3  2  0  0  0  0
  5  6  2  0  0  0  0
  5  3  1  0  0  0  0
  6  7  1  0  0  0  0
  7  1  1  0  0  0  0
  9  8  2  0  0  0  0
  9 10  1  0  0  0  0
 11  6  1  0  0  0  0
 12 11  2  0  0  0  0
 13 11  1  0  0  0  0
 14 15  1  0  0  0  0
 14  5  1  0  0  0  0
M  END
>  <minimizedAffinity>
-5.57857513

$$$$
