
 OpenBabel09122222393D

 15 15  0  0  0  0  0  0  0  0999 V2000
    9.6770   -2.6390    0.5350 C   0  0  0  0  0  0  0  0  0  0  0  0
    9.5790   -1.3340    0.2410 C   0  0  0  0  0  3  0  0  0  0  0  0
    9.4620   -0.3670    1.3360 C   0  0  0  0  0  0  0  0  0  0  0  0
    9.3640    0.8450    1.1330 O   0  0  0  0  0  0  0  0  0  0  0  0
    9.4650   -0.8880    2.7260 C   0  0  0  0  0  0  0  0  0  0  0  0
    9.5690   -2.2120    2.8980 C   0  0  0  0  0  0  0  0  0  0  0  0
    9.6730   -3.1230    1.8440 O   0  0  0  0  0  0  0  0  0  0  0  0
   10.9040   -3.6230   -1.2710 O   0  0  0  0  0  0  0  0  0  0  0  0
    9.8030   -3.6570   -0.6340 C   0  0  0  0  0  0  0  0  0  0  0  0
    8.8090   -4.4060   -0.8510 O   0  0  0  0  0  1  0  0  0  0  0  0
    9.5770   -2.7840    4.3190 C   0  0  0  0  0  0  0  0  0  0  0  0
    8.5200   -3.3920    4.6760 O   0  0  0  0  0  0  0  0  0  0  0  0
   10.6330   -2.5760    4.9910 O   0  0  0  0  0  1  0  0  0  0  0  0
    9.3600    0.0440    3.7430 O   0  0  0  0  0  0  0  0  0  0  0  0
    9.3010    0.8960    3.2710 H   0  0  0  0  0  0  0  0  0  0  0  0
  1  7  1  0  0  0  0
  2  1  2  0  0  0  0
  2  3  1  0  0  0  0
  3  5  1  0  0  0  0
  4  3  2  0  0  0  0
  5  6  2  0  0  0  0
  5 14  1  0  0  0  0
  6 11  1  0  0  0  0
  7  6  1  0  0  0  0
  8  9  2  0  0  0  0
  9  1  1  0  0  0  0
 10  9  1  0  0  0  0
 11 12  2  0  0  0  0
 11 13  1  0  0  0  0
 15 14  1  0  0  0  0
M  END
>  <minimizedAffinity>
-5.5860734

$$$$
