
 OpenBabel09122222393D

 15 15  0  0  0  0  0  0  0  0999 V2000
    9.6090   -0.1950    0.8750 C   0  0  0  0  0  0  0  0  0  0  0  0
   10.2360   -0.3390   -0.3010 C   0  0  0  0  0  3  0  0  0  0  0  0
   10.3540   -1.6790   -0.8840 C   0  0  0  0  0  0  0  0  0  0  0  0
   10.9210   -1.8790   -1.9590 O   0  0  0  0  0  0  0  0  0  0  0  0
    9.7610   -2.8150   -0.1360 C   0  0  0  0  0  0  0  0  0  0  0  0
    9.1580   -2.5510    1.0310 C   0  0  0  0  0  0  0  0  0  0  0  0
    9.0590   -1.2690    1.5770 O   0  0  0  0  0  0  0  0  0  0  0  0
    8.9820    1.2850    2.6500 O   0  0  0  0  0  1  0  0  0  0  0  0
    9.4880    1.2310    1.4840 C   0  0  0  0  0  0  0  0  0  0  0  0
    9.8870    2.1950    0.7700 O   0  0  0  0  0  0  0  0  0  0  0  0
    8.5330   -3.7010    1.8280 C   0  0  0  0  0  0  0  0  0  0  0  0
    7.9850   -4.6160    1.1400 O   0  0  0  0  0  0  0  0  0  0  0  0
    8.6200   -3.6060    3.0910 O   0  0  0  0  0  1  0  0  0  0  0  0
    9.8780   -4.0690   -0.7080 O   0  0  0  0  0  0  0  0  0  0  0  0
   10.3660   -3.9010   -1.5370 H   0  0  0  0  0  0  0  0  0  0  0  0
  1  9  1  0  0  0  0
  1  7  1  0  0  0  0
  2  1  2  0  0  0  0
  3  2  1  0  0  0  0
  3  5  1  0  0  0  0
  4  3  2  0  0  0  0
  5  6  2  0  0  0  0
  6  7  1  0  0  0  0
  6 11  1  0  0  0  0
  9  8  1  0  0  0  0
 10  9  2  0  0  0  0
 11 13  1  0  0  0  0
 12 11  2  0  0  0  0
 14  5  1  0  0  0  0
 15 14  1  0  0  0  0
M  END
>  <minimizedAffinity>
-5.28587151

$$$$
