
 OpenBabel09122222393D

 15 15  0  0  0  0  0  0  0  0999 V2000
   10.2180   -2.1560   -0.4470 C   0  0  0  0  0  0  0  0  0  0  0  0
   10.6820   -1.4490   -1.4870 C   0  0  0  0  0  3  0  0  0  0  0  0
   10.6770    0.0150   -1.4100 C   0  0  0  0  0  0  0  0  0  0  0  0
   11.0860    0.7230   -2.3330 O   0  0  0  0  0  0  0  0  0  0  0  0
   10.1580    0.6420   -0.1690 C   0  0  0  0  0  0  0  0  0  0  0  0
    9.7190   -0.1660    0.8050 C   0  0  0  0  0  0  0  0  0  0  0  0
    9.7240   -1.5600    0.7140 O   0  0  0  0  0  0  0  0  0  0  0  0
   11.3140   -4.2670   -0.1760 O   0  0  0  0  0  1  0  0  0  0  0  0
   10.2300   -3.7080   -0.5390 C   0  0  0  0  0  0  0  0  0  0  0  0
    9.1810   -4.2650   -0.9700 O   0  0  0  0  0  0  0  0  0  0  0  0
    9.1780    0.4490    2.1000 C   0  0  0  0  0  0  0  0  0  0  0  0
    8.6230    1.5850    1.9830 O   0  0  0  0  0  0  0  0  0  0  0  0
    9.3560   -0.2390    3.1520 O   0  0  0  0  0  1  0  0  0  0  0  0
   10.1680    2.0250   -0.1160 O   0  0  0  0  0  0  0  0  0  0  0  0
   10.5430    2.2870   -0.9790 H   0  0  0  0  0  0  0  0  0  0  0  0
  1  7  1  0  0  0  0
  2  3  1  0  0  0  0
  2  1  2  0  0  0  0
  3  5  1  0  0  0  0
  4  3  2  0  0  0  0
  5 14  1  0  0  0  0
  5  6  2  0  0  0  0
  6 11  1  0  0  0  0
  7  6  1  0  0  0  0
  9  1  1  0  0  0  0
  9  8  1  0  0  0  0
 10  9  2  0  0  0  0
 11 13  1  0  0  0  0
 12 11  2  0  0  0  0
 15 14  1  0  0  0  0
M  END
>  <minimizedAffinity>
-5.50647354

$$$$
