
 OpenBabel09122222393D

 15 15  0  0  0  0  0  0  0  0999 V2000
    9.4210   -2.9870    0.6000 C   0  0  0  0  0  0  0  0  0  0  0  0
    9.2600   -3.6160    1.7740 C   0  0  0  0  0  3  0  0  0  0  0  0
    9.1420   -2.8170    2.9970 C   0  0  0  0  0  0  0  0  0  0  0  0
    8.9970   -3.3330    4.1070 O   0  0  0  0  0  0  0  0  0  0  0  0
    9.2020   -1.3390    2.8690 C   0  0  0  0  0  0  0  0  0  0  0  0
    9.3650   -0.8230    1.6440 C   0  0  0  0  0  0  0  0  0  0  0  0
    9.4830   -1.5980    0.4870 O   0  0  0  0  0  0  0  0  0  0  0  0
   10.6550   -3.7520   -1.3040 O   0  0  0  0  0  0  0  0  0  0  0  0
    9.5430   -3.8450   -0.6920 C   0  0  0  0  0  0  0  0  0  0  0  0
    8.5370   -4.5370   -1.0180 O   0  0  0  0  0  1  0  0  0  0  0  0
    9.4290    0.6990    1.4750 C   0  0  0  0  0  0  0  0  0  0  0  0
    8.7590    1.3760    2.3140 O   0  0  0  0  0  1  0  0  0  0  0  0
   10.1340    1.1170    0.5060 O   0  0  0  0  0  0  0  0  0  0  0  0
    9.0820   -0.6050    4.0360 O   0  0  0  0  0  0  0  0  0  0  0  0
    8.9810   -1.2860    4.7280 H   0  0  0  0  0  0  0  0  0  0  0  0
  1  2  2  0  0  0  0
  2  3  1  0  0  0  0
  3  4  2  0  0  0  0
  5  3  1  0  0  0  0
  5 14  1  0  0  0  0
  6  5  2  0  0  0  0
  7  1  1  0  0  0  0
  7  6  1  0  0  0  0
  8  9  2  0  0  0  0
  9  1  1  0  0  0  0
 10  9  1  0  0  0  0
 11  6  1  0  0  0  0
 11 12  1  0  0  0  0
 13 11  2  0  0  0  0
 14 15  1  0  0  0  0
M  END
>  <minimizedAffinity>
-5.43425322

$$$$
