
 OpenBabel09122222393D

 21 22  0  0  0  0  0  0  0  0999 V2000
    9.7800   -1.6050    0.3780 C   0  0  0  0  0  0  0  0  0  0  0  0
    9.8140   -2.3120    1.5740 O   0  0  0  0  0  0  0  0  0  0  0  0
    9.7290   -1.6170    2.7690 C   0  0  0  0  0  0  0  0  0  0  0  0
    9.6440   -0.2820    2.8290 C   0  0  0  0  0  3  0  0  0  0  0  0
    9.6240    0.4850    1.5750 C   0  0  0  0  0  0  0  0  0  0  0  0
    9.5420    1.7130    1.5760 O   0  0  0  0  0  0  0  0  0  0  0  0
    9.6940   -0.2710    0.3010 C   0  0  0  0  0  0  0  0  0  0  0  0
    9.8980   -3.7030   -0.7020 O   0  0  0  0  0  1  0  0  0  0  0  0
    9.8410   -2.4520   -0.8930 C   0  0  0  0  0  0  0  0  0  0  0  0
    9.8960   -1.7960   -1.9740 O   0  0  0  0  0  0  0  0  0  0  0  0
    9.6600    0.4540   -0.8730 O   0  0  0  0  0  0  0  0  0  0  0  0
    9.5990    1.3870   -0.5920 H   0  0  0  0  0  0  0  0  0  0  0  0
    9.7380   -2.4820    4.0010 C   0  0  0  0  0  2  0  0  0  0  0  0
    8.7190   -3.4840    4.0210 O   0  0  0  0  0  0  0  0  0  0  0  0
    7.4240   -3.0470    3.6130 C   0  0  0  0  0  2  0  0  0  0  0  0
    6.7090   -4.0610    2.7510 C   0  0  0  0  0  0  0  0  0  0  0  0
    5.4270   -4.5100    3.0950 C   0  0  0  0  0  3  0  0  0  0  0  0
    4.7690   -5.4490    2.2990 C   0  0  0  0  0  3  0  0  0  0  0  0
    5.3830   -5.9440    1.1500 C   0  0  0  0  0  3  0  0  0  0  0  0
    6.6550   -5.4990    0.7940 C   0  0  0  0  0  3  0  0  0  0  0  0
    7.3150   -4.5600    1.5900 C   0  0  0  0  0  3  0  0  0  0  0  0
  1  2  1  0  0  0  0
  2  3  1  0  0  0  0
  3  4  2  0  0  0  0
  3 13  1  0  0  0  0
  5  6  2  0  0  0  0
  5  4  1  0  0  0  0
  7  1  2  0  0  0  0
  7  5  1  0  0  0  0
  9  8  1  0  0  0  0
  9  1  1  0  0  0  0
 10  9  2  0  0  0  0
 11 12  1  0  0  0  0
 11  7  1  0  0  0  0
 13 14  1  0  0  0  0
 15 14  1  0  0  0  0
 16 17  1  0  0  0  0
 16 15  1  0  0  0  0
 18 17  2  0  0  0  0
 19 18  1  0  0  0  0
 20 19  2  0  0  0  0
 20 21  1  0  0  0  0
 21 16  2  0  0  0  0
M  END
>  <minimizedAffinity>
-4.07783556

$$$$
