
 OpenBabel09122219363D

 21 22  0  0  0  0  0  0  0  0999 V2000
    9.3090   -0.2980    1.7800 C   0  0  0  0  0  0  0  0  0  0  0  0
    8.9790   -1.1620    2.8170 O   0  0  0  0  0  0  0  0  0  0  0  0
    8.9680   -2.5260    2.5790 C   0  0  0  0  0  0  0  0  0  0  0  0
    9.2350   -3.0570    1.3780 C   0  0  0  0  0  3  0  0  0  0  0  0
    9.5700   -2.1580    0.2640 C   0  0  0  0  0  0  0  0  0  0  0  0
    9.8280   -2.5950   -0.8560 O   0  0  0  0  0  0  0  0  0  0  0  0
    9.6000   -0.7000    0.5360 C   0  0  0  0  0  0  0  0  0  0  0  0
    9.6310    1.4440    3.3440 O   0  0  0  0  0  1  0  0  0  0  0  0
    9.3340    1.1890    2.1390 C   0  0  0  0  0  0  0  0  0  0  0  0
    8.9870    1.9720    1.2080 O   0  0  0  0  0  0  0  0  0  0  0  0
    9.9290    0.1370   -0.5100 O   0  0  0  0  0  0  0  0  0  0  0  0
   10.0780   -0.4560   -1.2710 H   0  0  0  0  0  0  0  0  0  0  0  0
    8.6320   -3.3710    3.7790 C   0  0  0  0  0  2  0  0  0  0  0  0
    7.2430   -3.3860    4.1150 O   0  0  0  0  0  0  0  0  0  0  0  0
    6.3770   -3.9170    3.1130 C   0  0  0  0  0  2  0  0  0  0  0  0
    4.9880   -4.2050    3.6320 C   0  0  0  0  0  0  0  0  0  0  0  0
    4.0460   -3.1740    3.7520 C   0  0  0  0  0  3  0  0  0  0  0  0
    2.7630   -3.4410    4.2340 C   0  0  0  0  0  3  0  0  0  0  0  0
    2.4100   -4.7400    4.5960 C   0  0  0  0  0  3  0  0  0  0  0  0
    3.3360   -5.7740    4.4750 C   0  0  0  0  0  3  0  0  0  0  0  0
    4.6200   -5.5080    3.9930 C   0  0  0  0  0  3  0  0  0  0  0  0
  1  9  1  0  0  0  0
  1  2  1  0  0  0  0
  3  2  1  0  0  0  0
  3 13  1  0  0  0  0
  4  3  2  0  0  0  0
  5  7  1  0  0  0  0
  5  4  1  0  0  0  0
  6  5  2  0  0  0  0
  7  1  2  0  0  0  0
  9  8  1  0  0  0  0
 10  9  2  0  0  0  0
 11  7  1  0  0  0  0
 12 11  1  0  0  0  0
 13 14  1  0  0  0  0
 15 16  1  0  0  0  0
 15 14  1  0  0  0  0
 16 17  2  0  0  0  0
 16 21  1  0  0  0  0
 17 18  1  0  0  0  0
 18 19  2  0  0  0  0
 20 19  1  0  0  0  0
 21 20  2  0  0  0  0
M  END
>  <minimizedAffinity>
-5.55745173

$$$$

 OpenBabel09122219363D

 21 22  0  0  0  0  0  0  0  0999 V2000
    9.0880   -3.1080    0.9790 C   0  0  0  0  0  0  0  0  0  0  0  0
    8.7730   -3.5600    2.2540 O   0  0  0  0  0  0  0  0  0  0  0  0
    8.7650   -2.6590    3.3050 C   0  0  0  0  0  0  0  0  0  0  0  0
    9.0770   -1.3650    3.1550 C   0  0  0  0  0  3  0  0  0  0  0  0
    9.4300   -0.8710    1.8160 C   0  0  0  0  0  0  0  0  0  0  0  0
    9.7200    0.3090    1.6250 O   0  0  0  0  0  0  0  0  0  0  0  0
    9.4140   -1.8410    0.6940 C   0  0  0  0  0  0  0  0  0  0  0  0
    8.1490   -5.0530    0.0210 O   0  0  0  0  0  1  0  0  0  0  0  0
    9.0360   -4.1620   -0.1290 C   0  0  0  0  0  0  0  0  0  0  0  0
    9.9290   -4.0510   -1.0190 O   0  0  0  0  0  0  0  0  0  0  0  0
    9.7320   -1.3670   -0.5620 O   0  0  0  0  0  0  0  0  0  0  0  0
    9.9220   -0.4180   -0.4340 H   0  0  0  0  0  0  0  0  0  0  0  0
    8.3750   -3.2470    4.6350 C   0  0  0  0  0  2  0  0  0  0  0  0
    6.9640   -3.3530    4.8380 O   0  0  0  0  0  0  0  0  0  0  0  0
    6.2200   -3.8340    3.7190 C   0  0  0  0  0  2  0  0  0  0  0  0
    4.7840   -4.1510    4.0640 C   0  0  0  0  0  0  0  0  0  0  0  0
    4.3920   -5.4680    4.3410 C   0  0  0  0  0  3  0  0  0  0  0  0
    3.0640   -5.7600    4.6570 C   0  0  0  0  0  3  0  0  0  0  0  0
    2.1170   -4.7380    4.7040 C   0  0  0  0  0  3  0  0  0  0  0  0
    2.4970   -3.4230    4.4390 C   0  0  0  0  0  3  0  0  0  0  0  0
    3.8250   -3.1310    4.1220 C   0  0  0  0  0  3  0  0  0  0  0  0
  1  2  1  0  0  0  0
  2  3  1  0  0  0  0
  3 13  1  0  0  0  0
  4  3  2  0  0  0  0
  5  4  1  0  0  0  0
  6  5  2  0  0  0  0
  7  1  2  0  0  0  0
  7  5  1  0  0  0  0
  9  8  1  0  0  0  0
  9  1  1  0  0  0  0
 10  9  2  0  0  0  0
 11 12  1  0  0  0  0
 11  7  1  0  0  0  0
 13 14  1  0  0  0  0
 15 16  1  0  0  0  0
 15 14  1  0  0  0  0
 16 21  2  0  0  0  0
 16 17  1  0  0  0  0
 17 18  2  0  0  0  0
 18 19  1  0  0  0  0
 20 19  2  0  0  0  0
 21 20  1  0  0  0  0
M  END
>  <minimizedAffinity>
-5.1826911

$$$$

 OpenBabel09122219363D

 21 22  0  0  0  0  0  0  0  0999 V2000
    9.5680    0.1610    1.7110 C   0  0  0  0  0  0  0  0  0  0  0  0
    9.5010   -0.6150    2.8610 O   0  0  0  0  0  0  0  0  0  0  0  0
    9.6060   -1.9920    2.7510 C   0  0  0  0  0  0  0  0  0  0  0  0
    9.7430   -2.6190    1.5750 C   0  0  0  0  0  3  0  0  0  0  0  0
    9.7990   -1.8150    0.3450 C   0  0  0  0  0  0  0  0  0  0  0  0
    9.9290   -2.3420   -0.7590 O   0  0  0  0  0  0  0  0  0  0  0  0
    9.7070   -0.3400    0.4770 C   0  0  0  0  0  0  0  0  0  0  0  0
    9.7830    2.3760    0.9180 O   0  0  0  0  0  0  0  0  0  0  0  0
    9.4820    1.6730    1.9270 C   0  0  0  0  0  0  0  0  0  0  0  0
    9.1880    2.0320    3.1050 O   0  0  0  0  0  1  0  0  0  0  0  0
    9.7760    0.4090   -0.6800 O   0  0  0  0  0  0  0  0  0  0  0  0
    9.8710   -0.2450   -1.3980 H   0  0  0  0  0  0  0  0  0  0  0  0
    9.5560   -2.7330    4.0600 C   0  0  0  0  0  2  0  0  0  0  0  0
    8.5110   -3.7040    4.1450 O   0  0  0  0  0  0  0  0  0  0  0  0
    7.1980   -3.2140    3.8790 C   0  0  0  0  0  2  0  0  0  0  0  0
    6.3910   -4.1460    3.0050 C   0  0  0  0  0  0  0  0  0  0  0  0
    5.0070   -4.2720    3.1860 C   0  0  0  0  0  3  0  0  0  0  0  0
    4.2640   -5.1350    2.3790 C   0  0  0  0  0  3  0  0  0  0  0  0
    4.8960   -5.8760    1.3820 C   0  0  0  0  0  3  0  0  0  0  0  0
    6.2710   -5.7540    1.1890 C   0  0  0  0  0  3  0  0  0  0  0  0
    7.0150   -4.8910    1.9960 C   0  0  0  0  0  3  0  0  0  0  0  0
  1  9  1  0  0  0  0
  1  2  1  0  0  0  0
  3  2  1  0  0  0  0
  3 13  1  0  0  0  0
  4  3  2  0  0  0  0
  5  7  1  0  0  0  0
  5  4  1  0  0  0  0
  6  5  2  0  0  0  0
  7  1  2  0  0  0  0
  8  9  2  0  0  0  0
  9 10  1  0  0  0  0
 11  7  1  0  0  0  0
 12 11  1  0  0  0  0
 13 14  1  0  0  0  0
 15 14  1  0  0  0  0
 16 17  1  0  0  0  0
 16 15  1  0  0  0  0
 18 17  2  0  0  0  0
 19 18  1  0  0  0  0
 20 19  2  0  0  0  0
 20 21  1  0  0  0  0
 21 16  2  0  0  0  0
M  END
>  <minimizedAffinity>
-5.11239862

$$$$

 OpenBabel09122219363D

 21 22  0  0  0  0  0  0  0  0999 V2000
    6.4740   -5.0850    1.2800 C   0  0  0  0  0  0  0  0  0  0  0  0
    7.1040   -4.4330    2.3320 O   0  0  0  0  0  0  0  0  0  0  0  0
    8.3530   -3.8700    2.1260 C   0  0  0  0  0  0  0  0  0  0  0  0
    9.0010   -3.9510    0.9560 C   0  0  0  0  0  3  0  0  0  0  0  0
    8.3580   -4.6530   -0.1650 C   0  0  0  0  0  0  0  0  0  0  0  0
    8.9100   -4.7500   -1.2600 O   0  0  0  0  0  0  0  0  0  0  0  0
    7.0120   -5.2320    0.0620 C   0  0  0  0  0  0  0  0  0  0  0  0
    4.2860   -5.6630    0.6000 O   0  0  0  0  0  0  0  0  0  0  0  0
    5.0830   -5.6430    1.5850 C   0  0  0  0  0  0  0  0  0  0  0  0
    4.8800   -5.9500    2.7960 O   0  0  0  0  0  1  0  0  0  0  0  0
    6.4080   -5.8770   -0.9980 O   0  0  0  0  0  0  0  0  0  0  0  0
    7.0510   -5.8150   -1.7300 H   0  0  0  0  0  0  0  0  0  0  0  0
    8.9270   -3.1570    3.3200 C   0  0  0  0  0  2  0  0  0  0  0  0
    9.7910   -2.0660    2.9920 O   0  0  0  0  0  0  0  0  0  0  0  0
    9.2130   -0.7680    3.1170 C   0  0  0  0  0  2  0  0  0  0  0  0
    9.4630    0.1030    1.9090 C   0  0  0  0  0  0  0  0  0  0  0  0
    9.6660   -0.4710    0.6470 C   0  0  0  0  0  3  0  0  0  0  0  0
    9.9000    0.3360   -0.4680 C   0  0  0  0  0  3  0  0  0  0  0  0
    9.9290    1.7230   -0.3330 C   0  0  0  0  0  3  0  0  0  0  0  0
    9.7220    2.3060    0.9170 C   0  0  0  0  0  3  0  0  0  0  0  0
    9.4880    1.4990    2.0330 C   0  0  0  0  0  3  0  0  0  0  0  0
  1  9  1  0  0  0  0
  1  2  1  0  0  0  0
  3  2  1  0  0  0  0
  3 13  1  0  0  0  0
  4  3  2  0  0  0  0
  5  7  1  0  0  0  0
  5  4  1  0  0  0  0
  6  5  2  0  0  0  0
  7  1  2  0  0  0  0
  8  9  2  0  0  0  0
  9 10  1  0  0  0  0
 11  7  1  0  0  0  0
 12 11  1  0  0  0  0
 14 15  1  0  0  0  0
 14 13  1  0  0  0  0
 16 21  1  0  0  0  0
 16 15  1  0  0  0  0
 17 16  2  0  0  0  0
 18 19  2  0  0  0  0
 18 17  1  0  0  0  0
 19 20  1  0  0  0  0
 20 21  2  0  0  0  0
M  END
>  <minimizedAffinity>
-5.09173298

$$$$

 OpenBabel09122219363D

 21 22  0  0  0  0  0  0  0  0999 V2000
    6.3870   -4.9970    1.9330 C   0  0  0  0  0  0  0  0  0  0  0  0
    7.1730   -4.2890    2.8340 O   0  0  0  0  0  0  0  0  0  0  0  0
    6.6010   -3.8200    4.0040 C   0  0  0  0  0  0  0  0  0  0  0  0
    5.3050   -3.9940    4.3010 C   0  0  0  0  0  3  0  0  0  0  0  0
    4.4530   -4.7260    3.3520 C   0  0  0  0  0  0  0  0  0  0  0  0
    3.2590   -4.9160    3.5800 O   0  0  0  0  0  0  0  0  0  0  0  0
    5.0820   -5.2420    2.1120 C   0  0  0  0  0  0  0  0  0  0  0  0
    6.3520   -5.7960   -0.2900 O   0  0  0  0  0  0  0  0  0  0  0  0
    7.1070   -5.5100    0.6860 C   0  0  0  0  0  0  0  0  0  0  0  0
    8.3590   -5.6510    0.8080 O   0  0  0  0  0  1  0  0  0  0  0  0
    4.2800   -5.9410    1.2330 O   0  0  0  0  0  0  0  0  0  0  0  0
    3.3950   -5.9410    1.6450 H   0  0  0  0  0  0  0  0  0  0  0  0
    7.5490   -3.0990    4.9240 C   0  0  0  0  0  2  0  0  0  0  0  0
    8.9310   -3.2950    4.6120 O   0  0  0  0  0  0  0  0  0  0  0  0
    9.6780   -2.1040    4.3690 C   0  0  0  0  0  2  0  0  0  0  0  0
    9.6550   -1.6850    2.9180 C   0  0  0  0  0  0  0  0  0  0  0  0
    9.9270   -2.6130    1.9040 C   0  0  0  0  0  3  0  0  0  0  0  0
    9.9080   -2.2230    0.5640 C   0  0  0  0  0  3  0  0  0  0  0  0
    9.6130   -0.9030    0.2250 C   0  0  0  0  0  3  0  0  0  0  0  0
    9.3340    0.0270    1.2250 C   0  0  0  0  0  3  0  0  0  0  0  0
    9.3540   -0.3620    2.5650 C   0  0  0  0  0  3  0  0  0  0  0  0
  1  7  2  0  0  0  0
  1  2  1  0  0  0  0
  2  3  1  0  0  0  0
  3  4  2  0  0  0  0
  3 13  1  0  0  0  0
  5  6  2  0  0  0  0
  5  4  1  0  0  0  0
  7  5  1  0  0  0  0
  8  9  2  0  0  0  0
  9 10  1  0  0  0  0
  9  1  1  0  0  0  0
 11 12  1  0  0  0  0
 11  7  1  0  0  0  0
 14 13  1  0  0  0  0
 15 14  1  0  0  0  0
 16 15  1  0  0  0  0
 17 16  2  0  0  0  0
 18 17  1  0  0  0  0
 19 18  2  0  0  0  0
 19 20  1  0  0  0  0
 20 21  2  0  0  0  0
 21 16  1  0  0  0  0
M  END
>  <minimizedAffinity>
-5.08998203

$$$$

 OpenBabel09122219363D

 21 22  0  0  0  0  0  0  0  0999 V2000
    9.6850   -2.0810    0.9640 C   0  0  0  0  0  0  0  0  0  0  0  0
    9.6760   -2.6560    2.2290 O   0  0  0  0  0  0  0  0  0  0  0  0
    9.5000   -1.8440    3.3370 C   0  0  0  0  0  0  0  0  0  0  0  0
    9.3640   -0.5140    3.2490 C   0  0  0  0  0  3  0  0  0  0  0  0
    9.3880    0.1150    1.9200 C   0  0  0  0  0  0  0  0  0  0  0  0
    9.2630    1.3320    1.7850 O   0  0  0  0  0  0  0  0  0  0  0  0
    9.5550   -0.7670    0.7400 C   0  0  0  0  0  0  0  0  0  0  0  0
    9.9290   -2.5110   -1.3460 O   0  0  0  0  0  0  0  0  0  0  0  0
    9.8460   -3.0540   -0.2040 C   0  0  0  0  0  0  0  0  0  0  0  0
    9.8060   -4.2800    0.1080 O   0  0  0  0  0  1  0  0  0  0  0  0
    9.5620   -0.1720   -0.5050 O   0  0  0  0  0  0  0  0  0  0  0  0
    9.4530    0.7820   -0.3290 H   0  0  0  0  0  0  0  0  0  0  0  0
    9.4710   -2.5730    4.6530 C   0  0  0  0  0  2  0  0  0  0  0  0
    8.4280   -3.5450    4.7610 O   0  0  0  0  0  0  0  0  0  0  0  0
    7.1150   -3.0170    4.9380 C   0  0  0  0  0  2  0  0  0  0  0  0
    6.0490   -3.8720    4.2940 C   0  0  0  0  0  0  0  0  0  0  0  0
    6.1420   -4.2280    2.9420 C   0  0  0  0  0  3  0  0  0  0  0  0
    5.1540   -5.0160    2.3480 C   0  0  0  0  0  3  0  0  0  0  0  0
    4.0680   -5.4590    3.1010 C   0  0  0  0  0  3  0  0  0  0  0  0
    3.9690   -5.1170    4.4490 C   0  0  0  0  0  3  0  0  0  0  0  0
    4.9560   -4.3290    5.0430 C   0  0  0  0  0  3  0  0  0  0  0  0
  1  2  1  0  0  0  0
  2  3  1  0  0  0  0
  3 13  1  0  0  0  0
  4  3  2  0  0  0  0
  5  4  1  0  0  0  0
  6  5  2  0  0  0  0
  7  1  2  0  0  0  0
  7  5  1  0  0  0  0
  8  9  2  0  0  0  0
  9 10  1  0  0  0  0
  9  1  1  0  0  0  0
 11 12  1  0  0  0  0
 11  7  1  0  0  0  0
 13 14  1  0  0  0  0
 14 15  1  0  0  0  0
 16 15  1  0  0  0  0
 16 21  1  0  0  0  0
 17 16  2  0  0  0  0
 18 17  1  0  0  0  0
 18 19  2  0  0  0  0
 19 20  1  0  0  0  0
 20 21  2  0  0  0  0
M  END
>  <minimizedAffinity>
-4.94462299

$$$$

 OpenBabel09122219363D

 21 22  0  0  0  0  0  0  0  0999 V2000
    8.6920   -3.6100    1.4000 C   0  0  0  0  0  0  0  0  0  0  0  0
    7.7060   -4.2870    2.1070 O   0  0  0  0  0  0  0  0  0  0  0  0
    6.9570   -5.2550    1.4590 C   0  0  0  0  0  0  0  0  0  0  0  0
    7.1200   -5.5530    0.1630 C   0  0  0  0  0  3  0  0  0  0  0  0
    8.1470   -4.8350   -0.6070 C   0  0  0  0  0  0  0  0  0  0  0  0
    8.3390   -5.0750   -1.7980 O   0  0  0  0  0  0  0  0  0  0  0  0
    8.9570   -3.8150    0.1040 C   0  0  0  0  0  0  0  0  0  0  0  0
    9.7140   -1.4900    1.6050 O   0  0  0  0  0  0  0  0  0  0  0  0
    9.4960   -2.5850    2.2020 C   0  0  0  0  0  0  0  0  0  0  0  0
    9.9020   -2.9860    3.3320 O   0  0  0  0  0  1  0  0  0  0  0  0
    9.9290   -3.1560   -0.6210 O   0  0  0  0  0  0  0  0  0  0  0  0
    9.8670   -3.5250   -1.5220 H   0  0  0  0  0  0  0  0  0  0  0  0
    5.9430   -5.9520    2.3260 C   0  0  0  0  0  2  0  0  0  0  0  0
    5.8160   -5.3980    3.6380 O   0  0  0  0  0  0  0  0  0  0  0  0
    5.3770   -4.0420    3.6900 C   0  0  0  0  0  2  0  0  0  0  0  0
    3.9480   -3.9060    4.1620 C   0  0  0  0  0  0  0  0  0  0  0  0
    3.4110   -2.6450    4.4530 C   0  0  0  0  0  3  0  0  0  0  0  0
    2.0920   -2.5220    4.8910 C   0  0  0  0  0  3  0  0  0  0  0  0
    1.2960   -3.6570    5.0390 C   0  0  0  0  0  3  0  0  0  0  0  0
    1.8170   -4.9160    4.7460 C   0  0  0  0  0  3  0  0  0  0  0  0
    3.1370   -5.0400    4.3070 C   0  0  0  0  0  3  0  0  0  0  0  0
  1  2  1  0  0  0  0
  1  9  1  0  0  0  0
  3  2  1  0  0  0  0
  3 13  1  0  0  0  0
  4  3  2  0  0  0  0
  5  7  1  0  0  0  0
  5  4  1  0  0  0  0
  6  5  2  0  0  0  0
  7  1  2  0  0  0  0
  8  9  2  0  0  0  0
  9 10  1  0  0  0  0
 11  7  1  0  0  0  0
 12 11  1  0  0  0  0
 13 14  1  0  0  0  0
 14 15  1  0  0  0  0
 15 16  1  0  0  0  0
 16 21  2  0  0  0  0
 16 17  1  0  0  0  0
 17 18  2  0  0  0  0
 18 19  1  0  0  0  0
 20 19  2  0  0  0  0
 21 20  1  0  0  0  0
M  END
>  <minimizedAffinity>
-4.73199606

$$$$

 OpenBabel09122219363D

 21 22  0  0  0  0  0  0  0  0999 V2000
    5.0600   -4.4590    3.3120 C   0  0  0  0  0  0  0  0  0  0  0  0
    5.9940   -3.7800    4.0830 O   0  0  0  0  0  0  0  0  0  0  0  0
    7.3030   -3.6960    3.6380 C   0  0  0  0  0  0  0  0  0  0  0  0
    7.7220   -4.2680    2.5010 C   0  0  0  0  0  3  0  0  0  0  0  0
    6.7520   -5.0070    1.6790 C   0  0  0  0  0  0  0  0  0  0  0  0
    7.0850   -5.5460    0.6250 O   0  0  0  0  0  0  0  0  0  0  0  0
    5.3490   -5.0710    2.1560 C   0  0  0  0  0  0  0  0  0  0  0  0
    3.1570   -5.6210    4.0920 O   0  0  0  0  0  1  0  0  0  0  0  0
    3.6320   -4.4700    3.8580 C   0  0  0  0  0  0  0  0  0  0  0  0
    3.0800   -3.3350    3.9420 O   0  0  0  0  0  0  0  0  0  0  0  0
    4.4400   -5.7530    1.3720 O   0  0  0  0  0  0  0  0  0  0  0  0
    4.9590   -6.0810    0.6120 H   0  0  0  0  0  0  0  0  0  0  0  0
    8.2220   -2.9070    4.5310 C   0  0  0  0  0  2  0  0  0  0  0  0
    9.3610   -2.3590    3.8630 O   0  0  0  0  0  0  0  0  0  0  0  0
    9.3320   -0.9460    3.6640 C   0  0  0  0  0  2  0  0  0  0  0  0
    9.5400   -0.5540    2.2200 C   0  0  0  0  0  0  0  0  0  0  0  0
    9.5480    0.7950    1.8430 C   0  0  0  0  0  3  0  0  0  0  0  0
    9.7380    1.1560    0.5080 C   0  0  0  0  0  3  0  0  0  0  0  0
    9.9270    0.1720   -0.4610 C   0  0  0  0  0  3  0  0  0  0  0  0
    9.9290   -1.1740   -0.0960 C   0  0  0  0  0  3  0  0  0  0  0  0
    9.7380   -1.5350    1.2390 C   0  0  0  0  0  3  0  0  0  0  0  0
  1  9  1  0  0  0  0
  1  2  1  0  0  0  0
  3  2  1  0  0  0  0
  3 13  1  0  0  0  0
  4  3  2  0  0  0  0
  5  7  1  0  0  0  0
  5  4  1  0  0  0  0
  6  5  2  0  0  0  0
  7  1  2  0  0  0  0
  9 10  2  0  0  0  0
  9  8  1  0  0  0  0
 11  7  1  0  0  0  0
 12 11  1  0  0  0  0
 14 13  1  0  0  0  0
 15 14  1  0  0  0  0
 16 15  1  0  0  0  0
 17 16  1  0  0  0  0
 18 17  2  0  0  0  0
 19 20  2  0  0  0  0
 19 18  1  0  0  0  0
 20 21  1  0  0  0  0
 21 16  2  0  0  0  0
M  END
>  <minimizedAffinity>
-4.21544409

$$$$

 OpenBabel09122219363D

 21 22  0  0  0  0  0  0  0  0999 V2000
    9.7800   -1.6050    0.3780 C   0  0  0  0  0  0  0  0  0  0  0  0
    9.8140   -2.3120    1.5740 O   0  0  0  0  0  0  0  0  0  0  0  0
    9.7290   -1.6170    2.7690 C   0  0  0  0  0  0  0  0  0  0  0  0
    9.6440   -0.2820    2.8290 C   0  0  0  0  0  3  0  0  0  0  0  0
    9.6240    0.4850    1.5750 C   0  0  0  0  0  0  0  0  0  0  0  0
    9.5420    1.7130    1.5760 O   0  0  0  0  0  0  0  0  0  0  0  0
    9.6940   -0.2710    0.3010 C   0  0  0  0  0  0  0  0  0  0  0  0
    9.8980   -3.7030   -0.7020 O   0  0  0  0  0  1  0  0  0  0  0  0
    9.8410   -2.4520   -0.8930 C   0  0  0  0  0  0  0  0  0  0  0  0
    9.8960   -1.7960   -1.9740 O   0  0  0  0  0  0  0  0  0  0  0  0
    9.6600    0.4540   -0.8730 O   0  0  0  0  0  0  0  0  0  0  0  0
    9.5990    1.3870   -0.5920 H   0  0  0  0  0  0  0  0  0  0  0  0
    9.7380   -2.4820    4.0010 C   0  0  0  0  0  2  0  0  0  0  0  0
    8.7190   -3.4840    4.0210 O   0  0  0  0  0  0  0  0  0  0  0  0
    7.4240   -3.0470    3.6130 C   0  0  0  0  0  2  0  0  0  0  0  0
    6.7090   -4.0610    2.7510 C   0  0  0  0  0  0  0  0  0  0  0  0
    5.4270   -4.5100    3.0950 C   0  0  0  0  0  3  0  0  0  0  0  0
    4.7690   -5.4490    2.2990 C   0  0  0  0  0  3  0  0  0  0  0  0
    5.3830   -5.9440    1.1500 C   0  0  0  0  0  3  0  0  0  0  0  0
    6.6550   -5.4990    0.7940 C   0  0  0  0  0  3  0  0  0  0  0  0
    7.3150   -4.5600    1.5900 C   0  0  0  0  0  3  0  0  0  0  0  0
  1  2  1  0  0  0  0
  2  3  1  0  0  0  0
  3  4  2  0  0  0  0
  3 13  1  0  0  0  0
  5  6  2  0  0  0  0
  5  4  1  0  0  0  0
  7  1  2  0  0  0  0
  7  5  1  0  0  0  0
  9  8  1  0  0  0  0
  9  1  1  0  0  0  0
 10  9  2  0  0  0  0
 11 12  1  0  0  0  0
 11  7  1  0  0  0  0
 13 14  1  0  0  0  0
 15 14  1  0  0  0  0
 16 17  1  0  0  0  0
 16 15  1  0  0  0  0
 18 17  2  0  0  0  0
 19 18  1  0  0  0  0
 20 19  2  0  0  0  0
 20 21  1  0  0  0  0
 21 16  2  0  0  0  0
M  END
>  <minimizedAffinity>
-4.07783556

$$$$

 OpenBabel09122219363D

 21 22  0  0  0  0  0  0  0  0999 V2000
    9.9280    3.7740    1.5830 C   0  0  0  0  0  0  0  0  0  0  0  0
    9.9290    2.7130    0.6860 O   0  0  0  0  0  0  0  0  0  0  0  0
    9.9020    1.4170    1.1750 C   0  0  0  0  0  0  0  0  0  0  0  0
    9.9020    1.1350    2.4850 C   0  0  0  0  0  3  0  0  0  0  0  0
    9.9180    2.2440    3.4500 C   0  0  0  0  0  0  0  0  0  0  0  0
    9.9140    2.0380    4.6630 O   0  0  0  0  0  0  0  0  0  0  0  0
    9.9250    3.6280    2.9140 C   0  0  0  0  0  0  0  0  0  0  0  0
    9.8880    6.1270    1.7850 O   0  0  0  0  0  1  0  0  0  0  0  0
    9.9210    5.1690    0.9570 C   0  0  0  0  0  0  0  0  0  0  0  0
    9.8780    5.1910   -0.3080 O   0  0  0  0  0  0  0  0  0  0  0  0
    9.9250    4.6640    3.8250 O   0  0  0  0  0  0  0  0  0  0  0  0
    9.9270    4.2310    4.7000 H   0  0  0  0  0  0  0  0  0  0  0  0
    9.8690    0.3460    0.1180 C   0  0  0  0  0  2  0  0  0  0  0  0
    9.1240   -0.8170    0.4860 O   0  0  0  0  0  0  0  0  0  0  0  0
    9.8920   -2.0090    0.6460 C   0  0  0  0  0  2  0  0  0  0  0  0
    9.0330   -3.2340    0.8620 C   0  0  0  0  0  0  0  0  0  0  0  0
    8.9380   -4.2200   -0.1290 C   0  0  0  0  0  3  0  0  0  0  0  0
    8.1420   -5.3490    0.0710 C   0  0  0  0  0  3  0  0  0  0  0  0
    7.4390   -5.5050    1.2640 C   0  0  0  0  0  3  0  0  0  0  0  0
    7.5320   -4.5340    2.2600 C   0  0  0  0  0  3  0  0  0  0  0  0
    8.3270   -3.4040    2.0610 C   0  0  0  0  0  3  0  0  0  0  0  0
  1  7  2  0  0  0  0
  2  3  1  0  0  0  0
  2  1  1  0  0  0  0
  3  4  2  0  0  0  0
  4  5  1  0  0  0  0
  5  6  2  0  0  0  0
  7  5  1  0  0  0  0
  7 11  1  0  0  0  0
  9  1  1  0  0  0  0
  9  8  1  0  0  0  0
 10  9  2  0  0  0  0
 11 12  1  0  0  0  0
 13 14  1  0  0  0  0
 13  3  1  0  0  0  0
 14 15  1  0  0  0  0
 15 16  1  0  0  0  0
 16 21  1  0  0  0  0
 17 18  1  0  0  0  0
 17 16  2  0  0  0  0
 18 19  2  0  0  0  0
 19 20  1  0  0  0  0
 21 20  2  0  0  0  0
M  END
>  <minimizedAffinity>
-3.98407173

$$$$
