
 OpenBabel09122222393D

 21 22  0  0  0  0  0  0  0  0999 V2000
    9.6850   -2.0810    0.9640 C   0  0  0  0  0  0  0  0  0  0  0  0
    9.6760   -2.6560    2.2290 O   0  0  0  0  0  0  0  0  0  0  0  0
    9.5000   -1.8440    3.3370 C   0  0  0  0  0  0  0  0  0  0  0  0
    9.3640   -0.5140    3.2490 C   0  0  0  0  0  3  0  0  0  0  0  0
    9.3880    0.1150    1.9200 C   0  0  0  0  0  0  0  0  0  0  0  0
    9.2630    1.3320    1.7850 O   0  0  0  0  0  0  0  0  0  0  0  0
    9.5550   -0.7670    0.7400 C   0  0  0  0  0  0  0  0  0  0  0  0
    9.9290   -2.5110   -1.3460 O   0  0  0  0  0  0  0  0  0  0  0  0
    9.8460   -3.0540   -0.2040 C   0  0  0  0  0  0  0  0  0  0  0  0
    9.8060   -4.2800    0.1080 O   0  0  0  0  0  1  0  0  0  0  0  0
    9.5620   -0.1720   -0.5050 O   0  0  0  0  0  0  0  0  0  0  0  0
    9.4530    0.7820   -0.3290 H   0  0  0  0  0  0  0  0  0  0  0  0
    9.4710   -2.5730    4.6530 C   0  0  0  0  0  2  0  0  0  0  0  0
    8.4280   -3.5450    4.7610 O   0  0  0  0  0  0  0  0  0  0  0  0
    7.1150   -3.0170    4.9380 C   0  0  0  0  0  2  0  0  0  0  0  0
    6.0490   -3.8720    4.2940 C   0  0  0  0  0  0  0  0  0  0  0  0
    6.1420   -4.2280    2.9420 C   0  0  0  0  0  3  0  0  0  0  0  0
    5.1540   -5.0160    2.3480 C   0  0  0  0  0  3  0  0  0  0  0  0
    4.0680   -5.4590    3.1010 C   0  0  0  0  0  3  0  0  0  0  0  0
    3.9690   -5.1170    4.4490 C   0  0  0  0  0  3  0  0  0  0  0  0
    4.9560   -4.3290    5.0430 C   0  0  0  0  0  3  0  0  0  0  0  0
  1  2  1  0  0  0  0
  2  3  1  0  0  0  0
  3 13  1  0  0  0  0
  4  3  2  0  0  0  0
  5  4  1  0  0  0  0
  6  5  2  0  0  0  0
  7  1  2  0  0  0  0
  7  5  1  0  0  0  0
  8  9  2  0  0  0  0
  9 10  1  0  0  0  0
  9  1  1  0  0  0  0
 11 12  1  0  0  0  0
 11  7  1  0  0  0  0
 13 14  1  0  0  0  0
 14 15  1  0  0  0  0
 16 15  1  0  0  0  0
 16 21  1  0  0  0  0
 17 16  2  0  0  0  0
 18 17  1  0  0  0  0
 18 19  2  0  0  0  0
 19 20  1  0  0  0  0
 20 21  2  0  0  0  0
M  END
>  <minimizedAffinity>
-4.94462299

$$$$
