
 OpenBabel09122222393D

 21 22  0  0  0  0  0  0  0  0999 V2000
    9.9280    3.7740    1.5830 C   0  0  0  0  0  0  0  0  0  0  0  0
    9.9290    2.7130    0.6860 O   0  0  0  0  0  0  0  0  0  0  0  0
    9.9020    1.4170    1.1750 C   0  0  0  0  0  0  0  0  0  0  0  0
    9.9020    1.1350    2.4850 C   0  0  0  0  0  3  0  0  0  0  0  0
    9.9180    2.2440    3.4500 C   0  0  0  0  0  0  0  0  0  0  0  0
    9.9140    2.0380    4.6630 O   0  0  0  0  0  0  0  0  0  0  0  0
    9.9250    3.6280    2.9140 C   0  0  0  0  0  0  0  0  0  0  0  0
    9.8880    6.1270    1.7850 O   0  0  0  0  0  1  0  0  0  0  0  0
    9.9210    5.1690    0.9570 C   0  0  0  0  0  0  0  0  0  0  0  0
    9.8780    5.1910   -0.3080 O   0  0  0  0  0  0  0  0  0  0  0  0
    9.9250    4.6640    3.8250 O   0  0  0  0  0  0  0  0  0  0  0  0
    9.9270    4.2310    4.7000 H   0  0  0  0  0  0  0  0  0  0  0  0
    9.8690    0.3460    0.1180 C   0  0  0  0  0  2  0  0  0  0  0  0
    9.1240   -0.8170    0.4860 O   0  0  0  0  0  0  0  0  0  0  0  0
    9.8920   -2.0090    0.6460 C   0  0  0  0  0  2  0  0  0  0  0  0
    9.0330   -3.2340    0.8620 C   0  0  0  0  0  0  0  0  0  0  0  0
    8.9380   -4.2200   -0.1290 C   0  0  0  0  0  3  0  0  0  0  0  0
    8.1420   -5.3490    0.0710 C   0  0  0  0  0  3  0  0  0  0  0  0
    7.4390   -5.5050    1.2640 C   0  0  0  0  0  3  0  0  0  0  0  0
    7.5320   -4.5340    2.2600 C   0  0  0  0  0  3  0  0  0  0  0  0
    8.3270   -3.4040    2.0610 C   0  0  0  0  0  3  0  0  0  0  0  0
  1  7  2  0  0  0  0
  2  3  1  0  0  0  0
  2  1  1  0  0  0  0
  3  4  2  0  0  0  0
  4  5  1  0  0  0  0
  5  6  2  0  0  0  0
  7  5  1  0  0  0  0
  7 11  1  0  0  0  0
  9  1  1  0  0  0  0
  9  8  1  0  0  0  0
 10  9  2  0  0  0  0
 11 12  1  0  0  0  0
 13 14  1  0  0  0  0
 13  3  1  0  0  0  0
 14 15  1  0  0  0  0
 15 16  1  0  0  0  0
 16 21  1  0  0  0  0
 17 18  1  0  0  0  0
 17 16  2  0  0  0  0
 18 19  2  0  0  0  0
 19 20  1  0  0  0  0
 21 20  2  0  0  0  0
M  END
>  <minimizedAffinity>
-3.98407173

$$$$
