
 OpenBabel09122222393D

 21 22  0  0  0  0  0  0  0  0999 V2000
    9.3090   -0.2980    1.7800 C   0  0  0  0  0  0  0  0  0  0  0  0
    8.9790   -1.1620    2.8170 O   0  0  0  0  0  0  0  0  0  0  0  0
    8.9680   -2.5260    2.5790 C   0  0  0  0  0  0  0  0  0  0  0  0
    9.2350   -3.0570    1.3780 C   0  0  0  0  0  3  0  0  0  0  0  0
    9.5700   -2.1580    0.2640 C   0  0  0  0  0  0  0  0  0  0  0  0
    9.8280   -2.5950   -0.8560 O   0  0  0  0  0  0  0  0  0  0  0  0
    9.6000   -0.7000    0.5360 C   0  0  0  0  0  0  0  0  0  0  0  0
    9.6310    1.4440    3.3440 O   0  0  0  0  0  1  0  0  0  0  0  0
    9.3340    1.1890    2.1390 C   0  0  0  0  0  0  0  0  0  0  0  0
    8.9870    1.9720    1.2080 O   0  0  0  0  0  0  0  0  0  0  0  0
    9.9290    0.1370   -0.5100 O   0  0  0  0  0  0  0  0  0  0  0  0
   10.0780   -0.4560   -1.2710 H   0  0  0  0  0  0  0  0  0  0  0  0
    8.6320   -3.3710    3.7790 C   0  0  0  0  0  2  0  0  0  0  0  0
    7.2430   -3.3860    4.1150 O   0  0  0  0  0  0  0  0  0  0  0  0
    6.3770   -3.9170    3.1130 C   0  0  0  0  0  2  0  0  0  0  0  0
    4.9880   -4.2050    3.6320 C   0  0  0  0  0  0  0  0  0  0  0  0
    4.0460   -3.1740    3.7520 C   0  0  0  0  0  3  0  0  0  0  0  0
    2.7630   -3.4410    4.2340 C   0  0  0  0  0  3  0  0  0  0  0  0
    2.4100   -4.7400    4.5960 C   0  0  0  0  0  3  0  0  0  0  0  0
    3.3360   -5.7740    4.4750 C   0  0  0  0  0  3  0  0  0  0  0  0
    4.6200   -5.5080    3.9930 C   0  0  0  0  0  3  0  0  0  0  0  0
  1  9  1  0  0  0  0
  1  2  1  0  0  0  0
  3  2  1  0  0  0  0
  3 13  1  0  0  0  0
  4  3  2  0  0  0  0
  5  7  1  0  0  0  0
  5  4  1  0  0  0  0
  6  5  2  0  0  0  0
  7  1  2  0  0  0  0
  9  8  1  0  0  0  0
 10  9  2  0  0  0  0
 11  7  1  0  0  0  0
 12 11  1  0  0  0  0
 13 14  1  0  0  0  0
 15 16  1  0  0  0  0
 15 14  1  0  0  0  0
 16 17  2  0  0  0  0
 16 21  1  0  0  0  0
 17 18  1  0  0  0  0
 18 19  2  0  0  0  0
 20 19  1  0  0  0  0
 21 20  2  0  0  0  0
M  END
>  <minimizedAffinity>
-5.55745173

$$$$
