
 OpenBabel09132204463D

 26 28  0  0  0  0  0  0  0  0999 V2000
   10.9720    1.4690   -0.8590 C   0  0  0  0  0  0  0  0  0  0  0  0
   11.9710    1.7050   -1.8120 C   0  0  0  0  0  3  0  0  0  0  0  0
   12.3570    0.6900   -2.6880 C   0  0  0  0  0  3  0  0  0  0  0  0
   11.7530   -0.5670   -2.6060 C   0  0  0  0  0  3  0  0  0  0  0  0
   10.7600   -0.8200   -1.6530 C   0  0  0  0  0  0  0  0  0  0  0  0
   10.3570    0.2090   -0.8030 C   0  0  0  0  0  3  0  0  0  0  0  0
   11.2330    3.6840   -0.1740 C   0  0  0  0  0  2  0  0  0  0  0  0
   10.5660    2.5360    0.1130 C   0  0  0  0  0  0  0  0  0  0  0  0
    9.7350    2.2470    1.0210 O   0  0  0  0  0  0  0  0  0  0  0  0
   11.2030    5.0340    0.5060 C   0  0  0  0  0  0  0  0  0  0  0  0
   10.2230    5.5630    1.0270 O   0  0  0  0  0  0  0  0  0  0  0  0
   12.6920    6.6990    1.5130 O   0  0  0  0  0  1  0  0  0  0  0  0
   12.5330    5.8540    0.5670 C   0  0  0  0  0  0  0  0  0  0  0  0
   13.4020    5.6270   -0.3480 O   0  0  0  0  0  0  0  0  0  0  0  0
   10.2560   -2.0950   -1.6660 O   0  0  0  0  0  0  0  0  0  0  0  0
   10.7880   -3.0180   -0.7120 C   0  0  0  0  0  2  0  0  0  0  0  0
    9.8660   -3.2330    0.4720 C   0  0  0  0  0  0  0  0  0  0  0  0
   10.1730   -2.5700    1.6750 C   0  0  0  0  0  3  0  0  0  0  0  0
    9.3800   -2.7340    2.8040 C   0  0  0  0  0  3  0  0  0  0  0  0
    8.2570   -3.5530    2.7490 C   0  0  0  0  0  3  0  0  0  0  0  0
    7.9210   -4.2350    1.5700 C   0  0  0  0  0  0  0  0  0  0  0  0
    6.7930   -5.0720    1.5410 C   0  0  0  0  0  3  0  0  0  0  0  0
    6.4520   -5.7770    0.3890 C   0  0  0  0  0  3  0  0  0  0  0  0
    7.2360   -5.6560   -0.7500 C   0  0  0  0  0  3  0  0  0  0  0  0
    8.3600   -4.8240   -0.7370 C   0  0  0  0  0  3  0  0  0  0  0  0
    8.7300   -4.0890    0.4130 C   0  0  0  0  0  0  0  0  0  0  0  0
  1  6  1  0  0  0  0
  1  8  1  0  0  0  0
  2  1  2  0  0  0  0
  3  4  2  0  0  0  0
  3  2  1  0  0  0  0
  4  5  1  0  0  0  0
  5  6  2  0  0  0  0
  7  8  1  0  0  0  0
  7 10  1  0  0  0  0
  8  9  2  0  0  0  0
 10 13  1  0  0  0  0
 10 11  2  0  0  0  0
 13 12  1  0  0  0  0
 14 13  2  0  0  0  0
 15  5  1  0  0  0  0
 15 16  1  0  0  0  0
 16 17  1  0  0  0  0
 17 18  1  0  0  0  0
 18 19  2  0  0  0  0
 20 19  1  0  0  0  0
 21 20  2  0  0  0  0
 22 21  1  0  0  0  0
 23 22  2  0  0  0  0
 24 25  2  0  0  0  0
 24 23  1  0  0  0  0
 25 26  1  0  0  0  0
 26 17  2  0  0  0  0
 26 21  1  0  0  0  0
M  END
>  <minimizedAffinity>
-7.77224064

$$$$
