
 OpenBabel09132204463D

 26 28  0  0  0  0  0  0  0  0999 V2000
    7.0920   -5.5730    0.0690 C   0  0  0  0  0  0  0  0  0  0  0  0
    6.1890   -6.0360   -0.8960 C   0  0  0  0  0  3  0  0  0  0  0  0
    5.0880   -6.8040   -0.5150 C   0  0  0  0  0  3  0  0  0  0  0  0
    4.8940   -7.1200    0.8320 C   0  0  0  0  0  3  0  0  0  0  0  0
    5.7930   -6.6730    1.8060 C   0  0  0  0  0  0  0  0  0  0  0  0
    6.8720   -5.8780    1.4210 C   0  0  0  0  0  3  0  0  0  0  0  0
    8.7290   -4.0530    0.7450 C   0  0  0  0  0  2  0  0  0  0  0  0
    8.2990   -4.7740   -0.3240 C   0  0  0  0  0  0  0  0  0  0  0  0
    8.7170   -4.8490   -1.5140 O   0  0  0  0  0  0  0  0  0  0  0  0
    9.8800   -3.0830    0.8760 C   0  0  0  0  0  0  0  0  0  0  0  0
   10.0400   -2.2630    1.7780 O   0  0  0  0  0  0  0  0  0  0  0  0
   11.7950   -4.0940   -0.2700 O   0  0  0  0  0  1  0  0  0  0  0  0
   10.9860   -3.1050   -0.2300 C   0  0  0  0  0  0  0  0  0  0  0  0
   11.0160   -2.1170   -1.0460 O   0  0  0  0  0  0  0  0  0  0  0  0
    5.4990   -7.0620    3.0870 O   0  0  0  0  0  0  0  0  0  0  0  0
    4.1430   -6.9160    3.5200 C   0  0  0  0  0  2  0  0  0  0  0  0
    3.8420   -5.5250    4.0450 C   0  0  0  0  0  0  0  0  0  0  0  0
    4.0100   -4.4390    3.1660 C   0  0  0  0  0  3  0  0  0  0  0  0
    3.7680   -3.1370    3.5840 C   0  0  0  0  0  3  0  0  0  0  0  0
    3.3400   -2.8960    4.8860 C   0  0  0  0  0  3  0  0  0  0  0  0
    3.1660   -3.9520    5.7930 C   0  0  0  0  0  0  0  0  0  0  0  0
    2.7510   -3.6850    7.1090 C   0  0  0  0  0  3  0  0  0  0  0  0
    2.5940   -4.7140    8.0350 C   0  0  0  0  0  3  0  0  0  0  0  0
    2.8520   -6.0250    7.6570 C   0  0  0  0  0  3  0  0  0  0  0  0
    3.2620   -6.3060    6.3500 C   0  0  0  0  0  3  0  0  0  0  0  0
    3.4250   -5.2860    5.3840 C   0  0  0  0  0  0  0  0  0  0  0  0
  1  6  1  0  0  0  0
  2  3  1  0  0  0  0
  2  1  2  0  0  0  0
  3  4  2  0  0  0  0
  4  5  1  0  0  0  0
  5 15  1  0  0  0  0
  6  5  2  0  0  0  0
  7 10  1  0  0  0  0
  8  1  1  0  0  0  0
  8  7  1  0  0  0  0
  9  8  2  0  0  0  0
 10 11  2  0  0  0  0
 12 13  1  0  0  0  0
 13 10  1  0  0  0  0
 14 13  2  0  0  0  0
 15 16  1  0  0  0  0
 16 17  1  0  0  0  0
 17 26  1  0  0  0  0
 18 19  1  0  0  0  0
 18 17  2  0  0  0  0
 19 20  2  0  0  0  0
 20 21  1  0  0  0  0
 21 22  1  0  0  0  0
 22 23  2  0  0  0  0
 24 23  1  0  0  0  0
 25 24  2  0  0  0  0
 26 21  2  0  0  0  0
 26 25  1  0  0  0  0
M  END
>  <minimizedAffinity>
-8.00896549

$$$$
