
 OpenBabel09132204463D

 26 28  0  0  0  0  0  0  0  0999 V2000
    6.4080   -5.8350    1.2320 C   0  0  0  0  0  0  0  0  0  0  0  0
    5.7430   -5.9710    0.0070 C   0  0  0  0  0  3  0  0  0  0  0  0
    6.3830   -5.6170   -1.1800 C   0  0  0  0  0  3  0  0  0  0  0  0
    7.6870   -5.1150   -1.1450 C   0  0  0  0  0  3  0  0  0  0  0  0
    8.3600   -4.9650    0.0730 C   0  0  0  0  0  0  0  0  0  0  0  0
    7.7250   -5.3520    1.2520 C   0  0  0  0  0  3  0  0  0  0  0  0
    5.1340   -5.0650    3.0300 C   0  0  0  0  0  2  0  0  0  0  0  0
    5.7250   -6.1790    2.5230 C   0  0  0  0  0  0  0  0  0  0  0  0
    5.8000   -7.3650    2.9540 O   0  0  0  0  0  0  0  0  0  0  0  0
    4.3460   -4.8660    4.3040 C   0  0  0  0  0  0  0  0  0  0  0  0
    4.6190   -5.3330    5.4080 O   0  0  0  0  0  0  0  0  0  0  0  0
    1.9310   -4.5170    4.5300 O   0  0  0  0  0  1  0  0  0  0  0  0
    3.0560   -3.9840    4.2370 C   0  0  0  0  0  0  0  0  0  0  0  0
    3.2030   -2.7590    3.8890 O   0  0  0  0  0  0  0  0  0  0  0  0
    9.6270   -4.4500   -0.0260 O   0  0  0  0  0  0  0  0  0  0  0  0
    9.7460   -3.0350   -0.1960 C   0  0  0  0  0  2  0  0  0  0  0  0
   10.9550   -2.6440   -1.0230 C   0  0  0  0  0  0  0  0  0  0  0  0
   11.8360   -3.6650   -1.4250 C   0  0  0  0  0  3  0  0  0  0  0  0
   12.9720   -3.3770   -2.1710 C   0  0  0  0  0  3  0  0  0  0  0  0
   13.2430   -2.0630   -2.5400 C   0  0  0  0  0  3  0  0  0  0  0  0
   12.3920   -1.0170   -2.1540 C   0  0  0  0  0  0  0  0  0  0  0  0
   12.6940    0.3050   -2.5210 C   0  0  0  0  0  3  0  0  0  0  0  0
   11.8770    1.3640   -2.1300 C   0  0  0  0  0  3  0  0  0  0  0  0
   10.7470    1.1140   -1.3630 C   0  0  0  0  0  3  0  0  0  0  0  0
   10.4320   -0.1970   -0.9930 C   0  0  0  0  0  3  0  0  0  0  0  0
   11.2360   -1.2940   -1.3790 C   0  0  0  0  0  0  0  0  0  0  0  0
  1  6  1  0  0  0  0
  1  8  1  0  0  0  0
  2  1  2  0  0  0  0
  3  4  2  0  0  0  0
  3  2  1  0  0  0  0
  4  5  1  0  0  0  0
  5  6  2  0  0  0  0
  7 10  1  0  0  0  0
  8  9  2  0  0  0  0
  8  7  1  0  0  0  0
 10 11  2  0  0  0  0
 13 10  1  0  0  0  0
 13 12  1  0  0  0  0
 14 13  2  0  0  0  0
 15  5  1  0  0  0  0
 16 15  1  0  0  0  0
 17 16  1  0  0  0  0
 18 17  2  0  0  0  0
 19 18  1  0  0  0  0
 20 19  2  0  0  0  0
 20 21  1  0  0  0  0
 21 26  1  0  0  0  0
 22 21  2  0  0  0  0
 22 23  1  0  0  0  0
 23 24  2  0  0  0  0
 24 25  1  0  0  0  0
 26 17  1  0  0  0  0
 26 25  2  0  0  0  0
M  END
>  <minimizedAffinity>
-9.12409019

$$$$
