
 OpenBabel09132204463D

 26 28  0  0  0  0  0  0  0  0999 V2000
    6.9080   -5.4030    0.3850 C   0  0  0  0  0  0  0  0  0  0  0  0
    6.0990   -6.2670   -0.3630 C   0  0  0  0  0  3  0  0  0  0  0  0
    4.9840   -6.8660    0.2230 C   0  0  0  0  0  3  0  0  0  0  0  0
    4.6820   -6.6120    1.5630 C   0  0  0  0  0  3  0  0  0  0  0  0
    5.4870   -5.7590    2.3260 C   0  0  0  0  0  0  0  0  0  0  0  0
    6.5810   -5.1390    1.7240 C   0  0  0  0  0  3  0  0  0  0  0  0
    8.7850   -4.0620    0.7360 C   0  0  0  0  0  2  0  0  0  0  0  0
    8.1300   -4.7750   -0.2170 C   0  0  0  0  0  0  0  0  0  0  0  0
    8.3650   -4.9570   -1.4450 O   0  0  0  0  0  0  0  0  0  0  0  0
   10.0450   -3.2310    0.6480 C   0  0  0  0  0  0  0  0  0  0  0  0
   10.5540   -2.5840    1.5610 O   0  0  0  0  0  0  0  0  0  0  0  0
   11.6200   -4.1030   -1.0140 O   0  0  0  0  0  1  0  0  0  0  0  0
   10.7900   -3.1740   -0.7260 C   0  0  0  0  0  0  0  0  0  0  0  0
   10.5200   -2.1860   -1.4960 O   0  0  0  0  0  0  0  0  0  0  0  0
    5.0930   -5.6040    3.6300 O   0  0  0  0  0  0  0  0  0  0  0  0
    5.5050   -4.4090    4.2990 C   0  0  0  0  0  2  0  0  0  0  0  0
    4.3350   -3.5660    4.7680 C   0  0  0  0  0  0  0  0  0  0  0  0
    3.1220   -3.6720    4.0620 C   0  0  0  0  0  3  0  0  0  0  0  0
    2.0140   -2.9180    4.4270 C   0  0  0  0  0  3  0  0  0  0  0  0
    2.0920   -2.0540    5.5130 C   0  0  0  0  0  3  0  0  0  0  0  0
    3.2840   -1.9160    6.2400 C   0  0  0  0  0  0  0  0  0  0  0  0
    3.3480   -1.0240    7.3230 C   0  0  0  0  0  3  0  0  0  0  0  0
    4.5270   -0.8530    8.0450 C   0  0  0  0  0  3  0  0  0  0  0  0
    5.6610   -1.5720    7.6920 C   0  0  0  0  0  3  0  0  0  0  0  0
    5.6110   -2.4670    6.6180 C   0  0  0  0  0  3  0  0  0  0  0  0
    4.4290   -2.6690    5.8690 C   0  0  0  0  0  0  0  0  0  0  0  0
  1  6  1  0  0  0  0
  2  3  1  0  0  0  0
  2  1  2  0  0  0  0
  3  4  2  0  0  0  0
  4  5  1  0  0  0  0
  5 15  1  0  0  0  0
  6  5  2  0  0  0  0
  8  1  1  0  0  0  0
  8  7  1  0  0  0  0
  9  8  2  0  0  0  0
 10  7  1  0  0  0  0
 10 11  2  0  0  0  0
 12 13  1  0  0  0  0
 13 10  1  0  0  0  0
 14 13  2  0  0  0  0
 15 16  1  0  0  0  0
 16 17  1  0  0  0  0
 17 26  1  0  0  0  0
 18 19  1  0  0  0  0
 18 17  2  0  0  0  0
 19 20  2  0  0  0  0
 20 21  1  0  0  0  0
 21 22  1  0  0  0  0
 22 23  2  0  0  0  0
 24 23  1  0  0  0  0
 25 24  2  0  0  0  0
 26 21  2  0  0  0  0
 26 25  1  0  0  0  0
M  END
>  <minimizedAffinity>
-8.38646317

$$$$
