
 OpenBabel09132204463D

 26 28  0  0  0  0  0  0  0  0999 V2000
    8.2270   -4.5070    0.3860 C   0  0  0  0  0  0  0  0  0  0  0  0
    7.7760   -4.8810   -0.8850 C   0  0  0  0  0  3  0  0  0  0  0  0
    6.7250   -5.7890   -1.0170 C   0  0  0  0  0  3  0  0  0  0  0  0
    6.1300   -6.3340    0.1240 C   0  0  0  0  0  3  0  0  0  0  0  0
    6.5760   -5.9760    1.4010 C   0  0  0  0  0  0  0  0  0  0  0  0
    7.6050   -5.0440    1.5240 C   0  0  0  0  0  3  0  0  0  0  0  0
   10.3100   -3.8150   -0.4050 C   0  0  0  0  0  2  0  0  0  0  0  0
    9.3770   -3.5580    0.5490 C   0  0  0  0  0  0  0  0  0  0  0  0
    9.3450   -2.7200    1.4940 O   0  0  0  0  0  0  0  0  0  0  0  0
   11.6510   -3.1670   -0.6660 C   0  0  0  0  0  0  0  0  0  0  0  0
   12.7320   -3.5190   -0.1990 O   0  0  0  0  0  0  0  0  0  0  0  0
   10.5900   -1.4710   -2.0820 O   0  0  0  0  0  0  0  0  0  0  0  0
   11.6920   -1.9270   -1.6200 C   0  0  0  0  0  0  0  0  0  0  0  0
   12.8440   -1.4330   -1.8850 O   0  0  0  0  0  1  0  0  0  0  0  0
    5.9200   -6.5900    2.4370 O   0  0  0  0  0  0  0  0  0  0  0  0
    4.4920   -6.6300    2.3730 C   0  0  0  0  0  2  0  0  0  0  0  0
    3.8380   -6.3680    3.7160 C   0  0  0  0  0  0  0  0  0  0  0  0
    3.5090   -7.4780    4.5160 C   0  0  0  0  0  3  0  0  0  0  0  0
    2.8940   -7.3120    5.7500 C   0  0  0  0  0  3  0  0  0  0  0  0
    2.6070   -6.0330    6.2150 C   0  0  0  0  0  3  0  0  0  0  0  0
    2.9140   -4.9020    5.4440 C   0  0  0  0  0  0  0  0  0  0  0  0
    2.6000   -3.6190    5.9230 C   0  0  0  0  0  3  0  0  0  0  0  0
    2.8740   -2.4820    5.1660 C   0  0  0  0  0  3  0  0  0  0  0  0
    3.4650   -2.6130    3.9170 C   0  0  0  0  0  3  0  0  0  0  0  0
    3.7880   -3.8830    3.4290 C   0  0  0  0  0  3  0  0  0  0  0  0
    3.5290   -5.0560    4.1740 C   0  0  0  0  0  0  0  0  0  0  0  0
  1  8  1  0  0  0  0
  1  6  1  0  0  0  0
  2  1  2  0  0  0  0
  3  2  1  0  0  0  0
  3  4  2  0  0  0  0
  4  5  1  0  0  0  0
  5  6  2  0  0  0  0
  5 15  1  0  0  0  0
  7  8  1  0  0  0  0
  8  9  2  0  0  0  0
 10  7  1  0  0  0  0
 10 11  2  0  0  0  0
 12 13  2  0  0  0  0
 13 10  1  0  0  0  0
 14 13  1  0  0  0  0
 16 15  1  0  0  0  0
 16 17  1  0  0  0  0
 17 26  2  0  0  0  0
 17 18  1  0  0  0  0
 18 19  2  0  0  0  0
 19 20  1  0  0  0  0
 21 22  1  0  0  0  0
 21 20  2  0  0  0  0
 23 22  2  0  0  0  0
 24 23  1  0  0  0  0
 25 24  2  0  0  0  0
 25 26  1  0  0  0  0
 26 21  1  0  0  0  0
M  END
>  <minimizedAffinity>
-7.773458

$$$$
