
 OpenBabel09132204463D

 26 28  0  0  0  0  0  0  0  0999 V2000
    6.1360   -5.7990    1.3310 C   0  0  0  0  0  0  0  0  0  0  0  0
    5.5890   -5.9590    0.0510 C   0  0  0  0  0  3  0  0  0  0  0  0
    6.3580   -5.6820   -1.0790 C   0  0  0  0  0  3  0  0  0  0  0  0
    7.6730   -5.2330   -0.9330 C   0  0  0  0  0  3  0  0  0  0  0  0
    8.2300   -5.0590    0.3390 C   0  0  0  0  0  0  0  0  0  0  0  0
    7.4650   -5.3700    1.4630 C   0  0  0  0  0  3  0  0  0  0  0  0
    4.4940   -5.0000    2.7840 C   0  0  0  0  0  2  0  0  0  0  0  0
    5.3160   -6.0590    2.5590 C   0  0  0  0  0  0  0  0  0  0  0  0
    5.4960   -7.1370    3.1930 O   0  0  0  0  0  0  0  0  0  0  0  0
    3.4930   -4.7530    3.8890 C   0  0  0  0  0  0  0  0  0  0  0  0
    2.7740   -5.5960    4.4210 O   0  0  0  0  0  0  0  0  0  0  0  0
    4.2170   -2.8390    5.2370 O   0  0  0  0  0  1  0  0  0  0  0  0
    3.3390   -3.2910    4.4240 C   0  0  0  0  0  0  0  0  0  0  0  0
    2.3290   -2.6200    4.0100 O   0  0  0  0  0  0  0  0  0  0  0  0
    9.5220   -4.6020    0.3480 O   0  0  0  0  0  0  0  0  0  0  0  0
    9.8840   -3.6470   -0.6530 C   0  0  0  0  0  2  0  0  0  0  0  0
    9.8410   -2.2190   -0.1430 C   0  0  0  0  0  0  0  0  0  0  0  0
    9.1990   -1.9780    1.0860 C   0  0  0  0  0  3  0  0  0  0  0  0
    9.1080   -0.6930    1.6060 C   0  0  0  0  0  3  0  0  0  0  0  0
    9.6690    0.3750    0.9130 C   0  0  0  0  0  3  0  0  0  0  0  0
   10.3120    0.1760   -0.3180 C   0  0  0  0  0  0  0  0  0  0  0  0
   10.8560    1.2710   -1.0100 C   0  0  0  0  0  3  0  0  0  0  0  0
   11.4790    1.1020   -2.2450 C   0  0  0  0  0  3  0  0  0  0  0  0
   11.5650   -0.1650   -2.8050 C   0  0  0  0  0  3  0  0  0  0  0  0
   11.0320   -1.2640   -2.1250 C   0  0  0  0  0  3  0  0  0  0  0  0
   10.3990   -1.1290   -0.8680 C   0  0  0  0  0  0  0  0  0  0  0  0
  1  6  1  0  0  0  0
  1  8  1  0  0  0  0
  2  1  2  0  0  0  0
  3  4  2  0  0  0  0
  3  2  1  0  0  0  0
  4  5  1  0  0  0  0
  5 15  1  0  0  0  0
  5  6  2  0  0  0  0
  7 10  1  0  0  0  0
  8  7  1  0  0  0  0
  8  9  2  0  0  0  0
 10 11  2  0  0  0  0
 10 13  1  0  0  0  0
 13 12  1  0  0  0  0
 14 13  2  0  0  0  0
 16 17  1  0  0  0  0
 16 15  1  0  0  0  0
 17 18  1  0  0  0  0
 18 19  2  0  0  0  0
 20 19  1  0  0  0  0
 21 20  2  0  0  0  0
 22 21  1  0  0  0  0
 23 22  2  0  0  0  0
 24 23  1  0  0  0  0
 24 25  2  0  0  0  0
 25 26  1  0  0  0  0
 26 21  1  0  0  0  0
 26 17  2  0  0  0  0
M  END
>  <minimizedAffinity>
-8.65742397

$$$$
