
 OpenBabel09132204463D

 26 28  0  0  0  0  0  0  0  0999 V2000
    8.8150   -2.6050    3.2030 C   0  0  0  0  0  0  0  0  0  0  0  0
    9.4830   -2.9470    4.3850 C   0  0  0  0  0  3  0  0  0  0  0  0
   10.2010   -1.9800    5.0890 C   0  0  0  0  0  3  0  0  0  0  0  0
   10.2620   -0.6710    4.6060 C   0  0  0  0  0  3  0  0  0  0  0  0
    9.6080   -0.3170    3.4210 C   0  0  0  0  0  0  0  0  0  0  0  0
    8.8650   -1.2810    2.7410 C   0  0  0  0  0  3  0  0  0  0  0  0
    8.7290   -3.8860    1.2540 C   0  0  0  0  0  2  0  0  0  0  0  0
    8.0660   -3.6370    2.4140 C   0  0  0  0  0  0  0  0  0  0  0  0
    6.9840   -4.0930    2.8810 O   0  0  0  0  0  0  0  0  0  0  0  0
    8.3920   -4.8150    0.1100 C   0  0  0  0  0  0  0  0  0  0  0  0
    8.7800   -4.7080   -1.0520 O   0  0  0  0  0  0  0  0  0  0  0  0
    7.8140   -6.8710    1.3110 O   0  0  0  0  0  1  0  0  0  0  0  0
    7.4610   -6.0360    0.4080 C   0  0  0  0  0  0  0  0  0  0  0  0
    6.3840   -6.1320   -0.2780 O   0  0  0  0  0  0  0  0  0  0  0  0
    9.7550    0.9940    3.0480 O   0  0  0  0  0  0  0  0  0  0  0  0
    9.2020    1.3810    1.7870 C   0  0  0  0  0  2  0  0  0  0  0  0
   10.2280    2.0080    0.8640 C   0  0  0  0  0  0  0  0  0  0  0  0
   10.7290    3.2790    1.2020 C   0  0  0  0  0  3  0  0  0  0  0  0
   11.6600    3.9190    0.3940 C   0  0  0  0  0  3  0  0  0  0  0  0
   12.1180    3.2960   -0.7620 C   0  0  0  0  0  3  0  0  0  0  0  0
   11.6390    2.0320   -1.1360 C   0  0  0  0  0  0  0  0  0  0  0  0
   12.1010    1.4270   -2.3180 C   0  0  0  0  0  3  0  0  0  0  0  0
   11.6220    0.1830   -2.7220 C   0  0  0  0  0  3  0  0  0  0  0  0
   10.6730   -0.4740   -1.9510 C   0  0  0  0  0  3  0  0  0  0  0  0
   10.2070    0.1140   -0.7710 C   0  0  0  0  0  3  0  0  0  0  0  0
   10.6770    1.3720   -0.3280 C   0  0  0  0  0  0  0  0  0  0  0  0
  1  2  1  0  0  0  0
  2  3  2  0  0  0  0
  4  3  1  0  0  0  0
  5  4  2  0  0  0  0
  6  1  2  0  0  0  0
  6  5  1  0  0  0  0
  7  8  1  0  0  0  0
  8  9  2  0  0  0  0
  8  1  1  0  0  0  0
 10 13  1  0  0  0  0
 10  7  1  0  0  0  0
 11 10  2  0  0  0  0
 13 12  1  0  0  0  0
 14 13  2  0  0  0  0
 15  5  1  0  0  0  0
 16 15  1  0  0  0  0
 17 18  1  0  0  0  0
 17 16  1  0  0  0  0
 19 18  2  0  0  0  0
 20 19  1  0  0  0  0
 21 20  2  0  0  0  0
 21 26  1  0  0  0  0
 22 21  1  0  0  0  0
 23 22  2  0  0  0  0
 23 24  1  0  0  0  0
 24 25  2  0  0  0  0
 25 26  1  0  0  0  0
 26 17  2  0  0  0  0
M  END
>  <minimizedAffinity>
-7.78123283

$$$$
