
 OpenBabel09132204463D

 35 38  0  0  0  0  0  0  0  0999 V2000
    1.9440   -9.1870    4.2950 C   0  0  0  0  0  0  0  0  0  0  0  0
    0.8840   -9.9790    3.8540 C   0  0  0  0  0  0  0  0  0  0  0  0
   -0.3170   -9.4060    4.4000 C   0  0  0  0  0  0  0  0  0  0  0  0
   -1.6890   -9.7250    4.2980 C   0  0  0  0  0  3  0  0  0  0  0  0
   -2.6420   -8.9410    4.9630 C   0  0  0  0  0  3  0  0  0  0  0  0
   -2.2640   -7.8290    5.7180 C   0  0  0  0  0  0  0  0  0  0  0  0
   -0.9050   -7.4920    5.7930 C   0  0  0  0  0  3  0  0  0  0  0  0
    0.0530   -8.3090    5.1730 C   0  0  0  0  0  0  0  0  0  0  0  0
    1.4290   -8.2730    5.2010 N   0  0  0  0  0  0  0  0  0  0  0  0
    5.2760   -8.4730    2.7030 C   0  0  0  0  0  0  0  0  0  0  0  0
    6.0930   -9.3970    3.3700 C   0  0  0  0  0  3  0  0  0  0  0  0
    5.5490  -10.2480    4.3340 C   0  0  0  0  0  3  0  0  0  0  0  0
    4.1890  -10.1800    4.6410 C   0  0  0  0  0  3  0  0  0  0  0  0
    3.3660   -9.2660    3.9790 C   0  0  0  0  0  0  0  0  0  0  0  0
    3.9110   -8.4210    3.0150 C   0  0  0  0  0  3  0  0  0  0  0  0
    5.8320   -7.5260    1.6810 C   0  0  0  0  0  2  0  0  0  0  0  0
    5.2020   -5.1630    2.2770 C   0  0  0  0  0  1  0  0  0  0  0  0
    4.9070   -6.3550    1.4120 N   0  0  0  0  0  4  0  0  0  0  0  0
    4.8630   -6.0040   -0.0410 C   0  0  0  0  0  1  0  0  0  0  0  0
    3.9660   -6.6790    1.6730 H   0  0  0  0  0  0  0  0  0  0  0  0
    0.8990  -11.2180    2.9800 C   0  0  0  0  0  3  0  0  0  0  0  0
    1.6990  -11.0830    1.6760 C   0  0  0  0  0  2  0  0  0  0  0  0
    1.6120  -12.3590    0.8370 C   0  0  0  0  0  2  0  0  0  0  0  0
    2.0680  -13.5810    1.6310 C   0  0  0  0  0  2  0  0  0  0  0  0
    1.2890  -13.7260    2.9350 C   0  0  0  0  0  2  0  0  0  0  0  0
    1.3530  -12.4540    3.7770 C   0  0  0  0  0  2  0  0  0  0  0  0
   -3.2860   -7.0050    6.4770 C   0  0  0  0  0  0  0  0  0  0  0  0
   -4.1050   -6.3200    5.7940 O   0  0  0  0  0  0  0  0  0  0  0  0
   -3.2520   -7.0900    7.7480 O   0  0  0  0  0  1  0  0  0  0  0  0
    2.2070   -7.4050    6.0870 C   0  0  0  0  0  2  0  0  0  0  0  0
    2.3180   -5.9790    5.5440 C   0  0  0  0  0  0  0  0  0  0  0  0
    2.2100   -5.7810    4.3240 O   0  0  0  0  0  0  0  0  0  0  0  0
    2.5400   -4.9150    6.4110 N   0  0  0  0  0  0  0  0  0  0  0  0
    2.6830   -5.0180    7.8600 C   0  0  0  0  0  1  0  0  0  0  0  0
    2.7990   -3.5930    5.8630 C   0  0  0  0  0  1  0  0  0  0  0  0
  1  9  1  0  0  0  0
  2  1  2  0  0  0  0
  2  3  1  0  0  0  0
  3  8  1  0  0  0  0
  4  3  2  0  0  0  0
  4  5  1  0  0  0  0
  5  6  2  0  0  0  0
  6  7  1  0  0  0  0
  6 27  1  0  0  0  0
  8  9  1  0  0  0  0
  8  7  2  0  0  0  0
  9 30  1  0  0  0  0
 10 15  2  0  0  0  0
 10 11  1  0  0  0  0
 11 12  2  0  0  0  0
 12 13  1  0  0  0  0
 14  1  1  0  0  0  0
 14 13  2  0  0  0  0
 15 14  1  0  0  0  0
 16 10  1  0  0  0  0
 18 20  1  0  0  0  0
 18 16  1  0  0  0  0
 18 17  1  0  0  0  0
 19 18  1  0  0  0  0
 21 26  1  0  0  0  0
 21  2  1  0  0  0  0
 22 21  1  0  0  0  0
 23 24  1  0  0  0  0
 23 22  1  0  0  0  0
 24 25  1  0  0  0  0
 25 26  1  0  0  0  0
 27 29  1  0  0  0  0
 28 27  2  0  0  0  0
 31 30  1  0  0  0  0
 31 33  1  0  0  0  0
 32 31  2  0  0  0  0
 33 34  1  0  0  0  0
 35 33  1  0  0  0  0
M  END
>  <minimizedAffinity>
-7.21089029

$$$$
