
 OpenBabel09132204463D

 35 38  0  0  0  0  0  0  0  0999 V2000
    4.2170   -8.0630    3.6600 C   0  0  0  0  0  0  0  0  0  0  0  0
    4.6960   -6.9620    2.9500 C   0  0  0  0  0  0  0  0  0  0  0  0
    4.2980   -5.7910    3.6830 C   0  0  0  0  0  0  0  0  0  0  0  0
    4.4990   -4.4050    3.5000 C   0  0  0  0  0  3  0  0  0  0  0  0
    3.9740   -3.4920    4.4260 C   0  0  0  0  0  3  0  0  0  0  0  0
    3.2650   -3.9280    5.5480 C   0  0  0  0  0  0  0  0  0  0  0  0
    3.0930   -5.3050    5.7480 C   0  0  0  0  0  3  0  0  0  0  0  0
    3.5710   -6.2140    4.7920 C   0  0  0  0  0  0  0  0  0  0  0  0
    3.4230   -7.5800    4.6880 N   0  0  0  0  0  0  0  0  0  0  0  0
    5.2330  -11.6530    4.1390 C   0  0  0  0  0  0  0  0  0  0  0  0
    4.7500  -12.2270    2.9550 C   0  0  0  0  0  3  0  0  0  0  0  0
    4.0970  -11.4360    2.0070 C   0  0  0  0  0  3  0  0  0  0  0  0
    3.9200  -10.0710    2.2350 C   0  0  0  0  0  3  0  0  0  0  0  0
    4.4000   -9.4880    3.4110 C   0  0  0  0  0  0  0  0  0  0  0  0
    5.0550  -10.2790    4.3530 C   0  0  0  0  0  3  0  0  0  0  0  0
    5.9150  -12.4770    5.1910 C   0  0  0  0  0  2  0  0  0  0  0  0
    4.0520  -13.6000    6.4550 C   0  0  0  0  0  1  0  0  0  0  0  0
    5.1200  -12.5460    6.4800 N   0  0  0  0  0  4  0  0  0  0  0  0
    6.0100  -12.6680    7.6760 C   0  0  0  0  0  1  0  0  0  0  0  0
    4.6360  -11.6410    6.5550 H   0  0  0  0  0  0  0  0  0  0  0  0
    5.4800   -6.9120    1.6520 C   0  0  0  0  0  3  0  0  0  0  0  0
    4.6240   -6.8720    0.3780 C   0  0  0  0  0  2  0  0  0  0  0  0
    5.4970   -6.8790   -0.8770 C   0  0  0  0  0  2  0  0  0  0  0  0
    6.5050   -5.7320   -0.8620 C   0  0  0  0  0  2  0  0  0  0  0  0
    7.3600   -5.7520    0.4010 C   0  0  0  0  0  2  0  0  0  0  0  0
    6.5020   -5.7610    1.6650 C   0  0  0  0  0  2  0  0  0  0  0  0
    2.6560   -2.9430    6.5280 C   0  0  0  0  0  0  0  0  0  0  0  0
    2.2130   -1.8530    6.0580 O   0  0  0  0  0  0  0  0  0  0  0  0
    2.6190   -3.3080    7.7490 O   0  0  0  0  0  1  0  0  0  0  0  0
    2.5330   -8.3740    5.5360 C   0  0  0  0  0  2  0  0  0  0  0  0
    1.1170   -8.4610    4.9620 C   0  0  0  0  0  0  0  0  0  0  0  0
    0.9350   -9.0280    3.8740 O   0  0  0  0  0  0  0  0  0  0  0  0
    0.0460   -7.9070    5.6540 N   0  0  0  0  0  0  0  0  0  0  0  0
    0.1310   -7.2190    6.9380 C   0  0  0  0  0  1  0  0  0  0  0  0
   -1.2620   -7.8620    5.0200 C   0  0  0  0  0  1  0  0  0  0  0  0
  1  9  1  0  0  0  0
  2  1  2  0  0  0  0
  2  3  1  0  0  0  0
  3  8  1  0  0  0  0
  4  3  2  0  0  0  0
  4  5  1  0  0  0  0
  5  6  2  0  0  0  0
  6  7  1  0  0  0  0
  6 27  1  0  0  0  0
  8  7  2  0  0  0  0
  9  8  1  0  0  0  0
  9 30  1  0  0  0  0
 10 15  1  0  0  0  0
 10 16  1  0  0  0  0
 11 10  2  0  0  0  0
 12 13  2  0  0  0  0
 12 11  1  0  0  0  0
 13 14  1  0  0  0  0
 14  1  1  0  0  0  0
 14 15  2  0  0  0  0
 16 18  1  0  0  0  0
 17 18  1  0  0  0  0
 18 20  1  0  0  0  0
 18 19  1  0  0  0  0
 21 26  1  0  0  0  0
 21  2  1  0  0  0  0
 22 21  1  0  0  0  0
 23 24  1  0  0  0  0
 23 22  1  0  0  0  0
 24 25  1  0  0  0  0
 25 26  1  0  0  0  0
 27 29  1  0  0  0  0
 28 27  2  0  0  0  0
 31 30  1  0  0  0  0
 31 33  1  0  0  0  0
 32 31  2  0  0  0  0
 33 34  1  0  0  0  0
 35 33  1  0  0  0  0
M  END
>  <minimizedAffinity>
-7.32996416

$$$$
