
 OpenBabel09132200143D

 35 38  0  0  0  0  0  0  0  0999 V2000
    4.1450   -7.6700    3.5800 C   0  0  0  0  0  0  0  0  0  0  0  0
    4.6300   -6.6190    2.8020 C   0  0  0  0  0  0  0  0  0  0  0  0
    4.1610   -5.4030    3.4090 C   0  0  0  0  0  0  0  0  0  0  0  0
    4.3330   -4.0320    3.1170 C   0  0  0  0  0  3  0  0  0  0  0  0
    3.7340   -3.0610    3.9320 C   0  0  0  0  0  3  0  0  0  0  0  0
    2.9790   -3.4220    5.0510 C   0  0  0  0  0  0  0  0  0  0  0  0
    2.8350   -4.7820    5.3600 C   0  0  0  0  0  3  0  0  0  0  0  0
    3.3880   -5.7530    4.5130 C   0  0  0  0  0  0  0  0  0  0  0  0
    3.2840   -7.1270    4.5200 N   0  0  0  0  0  0  0  0  0  0  0  0
    3.8930  -11.2290    2.3880 C   0  0  0  0  0  0  0  0  0  0  0  0
    4.8280  -11.8560    3.2230 C   0  0  0  0  0  3  0  0  0  0  0  0
    5.5330  -11.1130    4.1710 C   0  0  0  0  0  3  0  0  0  0  0  0
    5.3120   -9.7390    4.2900 C   0  0  0  0  0  3  0  0  0  0  0  0
    4.3810   -9.1050    3.4650 C   0  0  0  0  0  0  0  0  0  0  0  0
    3.6760   -9.8510    2.5220 C   0  0  0  0  0  3  0  0  0  0  0  0
    3.1380  -11.9920    1.3400 C   0  0  0  0  0  2  0  0  0  0  0  0
    3.5410  -14.4350    0.8870 C   0  0  0  0  0  1  0  0  0  0  0  0
    3.9990  -13.0260    0.6410 N   0  0  0  0  0  4  0  0  0  0  0  0
    4.1550  -12.7270   -0.8160 C   0  0  0  0  0  1  0  0  0  0  0  0
    4.9320  -12.9440    1.0680 H   0  0  0  0  0  0  0  0  0  0  0  0
    5.4800   -6.6550    1.5460 C   0  0  0  0  0  3  0  0  0  0  0  0
    4.6950   -6.5780    0.2290 C   0  0  0  0  0  2  0  0  0  0  0  0
    5.6280   -6.6770   -0.9790 C   0  0  0  0  0  2  0  0  0  0  0  0
    6.7170   -5.6070   -0.9310 C   0  0  0  0  0  2  0  0  0  0  0  0
    7.5030   -5.6640    0.3750 C   0  0  0  0  0  2  0  0  0  0  0  0
    6.5830   -5.5820    1.5920 C   0  0  0  0  0  2  0  0  0  0  0  0
    2.2920   -2.3770    5.9090 C   0  0  0  0  0  0  0  0  0  0  0  0
    1.4990   -1.5760    5.3290 O   0  0  0  0  0  0  0  0  0  0  0  0
    2.5520   -2.4080    7.1560 O   0  0  0  0  0  1  0  0  0  0  0  0
    2.3730   -7.8740    5.3880 C   0  0  0  0  0  2  0  0  0  0  0  0
    3.0820   -8.4370    6.6210 C   0  0  0  0  0  0  0  0  0  0  0  0
    3.7700   -7.6830    7.3250 O   0  0  0  0  0  0  0  0  0  0  0  0
    2.9590   -9.7830    6.9460 N   0  0  0  0  0  0  0  0  0  0  0  0
    2.1810  -10.7680    6.2010 C   0  0  0  0  0  1  0  0  0  0  0  0
    3.7640  -10.3300    8.0260 C   0  0  0  0  0  1  0  0  0  0  0  0
  1  9  1  0  0  0  0
  2  3  1  0  0  0  0
  2  1  2  0  0  0  0
  3  8  1  0  0  0  0
  4  3  2  0  0  0  0
  4  5  1  0  0  0  0
  5  6  2  0  0  0  0
  6  7  1  0  0  0  0
  6 27  1  0  0  0  0
  8  9  1  0  0  0  0
  8  7  2  0  0  0  0
  9 30  1  0  0  0  0
 10 15  2  0  0  0  0
 10 11  1  0  0  0  0
 11 12  2  0  0  0  0
 12 13  1  0  0  0  0
 14  1  1  0  0  0  0
 14 13  2  0  0  0  0
 15 14  1  0  0  0  0
 16 10  1  0  0  0  0
 18 17  1  0  0  0  0
 18 20  1  0  0  0  0
 18 16  1  0  0  0  0
 19 18  1  0  0  0  0
 21 26  1  0  0  0  0
 21  2  1  0  0  0  0
 22 21  1  0  0  0  0
 23 24  1  0  0  0  0
 23 22  1  0  0  0  0
 24 25  1  0  0  0  0
 25 26  1  0  0  0  0
 27 29  1  0  0  0  0
 28 27  2  0  0  0  0
 30 31  1  0  0  0  0
 31 33  1  0  0  0  0
 31 32  2  0  0  0  0
 33 35  1  0  0  0  0
 34 33  1  0  0  0  0
M  END
>  <minimizedAffinity>
-7.84689665

$$$$

 OpenBabel09132200143D

 35 38  0  0  0  0  0  0  0  0999 V2000
    4.1570   -7.8370    3.7630 C   0  0  0  0  0  0  0  0  0  0  0  0
    4.5820   -6.7920    2.9420 C   0  0  0  0  0  0  0  0  0  0  0  0
    4.1130   -5.5730    3.5450 C   0  0  0  0  0  0  0  0  0  0  0  0
    4.2390   -4.2050    3.2160 C   0  0  0  0  0  3  0  0  0  0  0  0
    3.6550   -3.2310    4.0380 C   0  0  0  0  0  3  0  0  0  0  0  0
    2.9600   -3.5840    5.1970 C   0  0  0  0  0  0  0  0  0  0  0  0
    2.8620   -4.9390    5.5410 C   0  0  0  0  0  3  0  0  0  0  0  0
    3.3980   -5.9170    4.6900 C   0  0  0  0  0  0  0  0  0  0  0  0
    3.3270   -7.2920    4.7300 N   0  0  0  0  0  0  0  0  0  0  0  0
    4.0260  -11.4020    2.5740 C   0  0  0  0  0  0  0  0  0  0  0  0
    4.9220  -12.0120    3.4620 C   0  0  0  0  0  3  0  0  0  0  0  0
    5.5630  -11.2550    4.4450 C   0  0  0  0  0  3  0  0  0  0  0  0
    5.3150   -9.8850    4.5450 C   0  0  0  0  0  3  0  0  0  0  0  0
    4.4200   -9.2680    3.6670 C   0  0  0  0  0  0  0  0  0  0  0  0
    3.7800  -10.0280    2.6910 C   0  0  0  0  0  3  0  0  0  0  0  0
    3.3410  -12.1810    1.4900 C   0  0  0  0  0  2  0  0  0  0  0  0
    4.3010  -14.3880    0.7540 C   0  0  0  0  0  1  0  0  0  0  0  0
    4.3220  -12.8970    0.5810 N   0  0  0  0  0  4  0  0  0  0  0  0
    4.1560  -12.4890   -0.8480 C   0  0  0  0  0  1  0  0  0  0  0  0
    5.2560  -12.5820    0.8790 H   0  0  0  0  0  0  0  0  0  0  0  0
    5.3760   -6.8360    1.6500 C   0  0  0  0  0  3  0  0  0  0  0  0
    4.5290   -6.8440    0.3690 C   0  0  0  0  0  2  0  0  0  0  0  0
    5.4100   -6.9460   -0.8770 C   0  0  0  0  0  2  0  0  0  0  0  0
    6.4490   -5.8270   -0.9180 C   0  0  0  0  0  2  0  0  0  0  0  0
    7.2940   -5.8000    0.3510 C   0  0  0  0  0  2  0  0  0  0  0  0
    6.4280   -5.7140    1.6060 C   0  0  0  0  0  2  0  0  0  0  0  0
    2.2880   -2.5370    6.0640 C   0  0  0  0  0  0  0  0  0  0  0  0
    2.5120   -2.5820    7.3110 O   0  0  0  0  0  1  0  0  0  0  0  0
    1.5670   -1.6770    5.4580 O   0  0  0  0  0  0  0  0  0  0  0  0
    2.4730   -8.0400    5.6540 C   0  0  0  0  0  2  0  0  0  0  0  0
    1.0470   -8.1970    5.1220 C   0  0  0  0  0  0  0  0  0  0  0  0
    0.8660   -8.7210    4.0130 O   0  0  0  0  0  0  0  0  0  0  0  0
   -0.0340   -7.7520    5.8740 N   0  0  0  0  0  0  0  0  0  0  0  0
    0.0490   -7.1220    7.1880 C   0  0  0  0  0  1  0  0  0  0  0  0
   -1.3630   -7.7660    5.2850 C   0  0  0  0  0  1  0  0  0  0  0  0
  1  9  1  0  0  0  0
  2  3  1  0  0  0  0
  2  1  2  0  0  0  0
  3  8  1  0  0  0  0
  4  3  2  0  0  0  0
  4  5  1  0  0  0  0
  5  6  2  0  0  0  0
  6  7  1  0  0  0  0
  6 27  1  0  0  0  0
  8  9  1  0  0  0  0
  8  7  2  0  0  0  0
  9 30  1  0  0  0  0
 10 15  2  0  0  0  0
 10 11  1  0  0  0  0
 11 12  2  0  0  0  0
 12 13  1  0  0  0  0
 14  1  1  0  0  0  0
 14 13  2  0  0  0  0
 15 14  1  0  0  0  0
 16 10  1  0  0  0  0
 18 17  1  0  0  0  0
 18 20  1  0  0  0  0
 18 16  1  0  0  0  0
 19 18  1  0  0  0  0
 21  2  1  0  0  0  0
 22 21  1  0  0  0  0
 23 22  1  0  0  0  0
 24 23  1  0  0  0  0
 24 25  1  0  0  0  0
 25 26  1  0  0  0  0
 26 21  1  0  0  0  0
 27 28  1  0  0  0  0
 29 27  2  0  0  0  0
 31 30  1  0  0  0  0
 31 33  1  0  0  0  0
 32 31  2  0  0  0  0
 33 34  1  0  0  0  0
 35 33  1  0  0  0  0
M  END
>  <minimizedAffinity>
-7.79059982

$$$$

 OpenBabel09132200143D

 35 38  0  0  0  0  0  0  0  0999 V2000
    2.1800   -6.3620    5.3150 C   0  0  0  0  0  0  0  0  0  0  0  0
    2.7800   -5.1050    5.2280 C   0  0  0  0  0  0  0  0  0  0  0  0
    3.8130   -5.2070    4.2330 C   0  0  0  0  0  0  0  0  0  0  0  0
    4.7360   -4.2910    3.6810 C   0  0  0  0  0  3  0  0  0  0  0  0
    5.6340   -4.7130    2.6900 C   0  0  0  0  0  3  0  0  0  0  0  0
    5.6240   -6.0270    2.2160 C   0  0  0  0  0  0  0  0  0  0  0  0
    4.6870   -6.9280    2.7400 C   0  0  0  0  0  3  0  0  0  0  0  0
    3.8260   -6.5210    3.7700 C   0  0  0  0  0  0  0  0  0  0  0  0
    2.9220   -7.2300    4.5290 N   0  0  0  0  0  0  0  0  0  0  0  0
   -1.2790   -7.5380    6.2090 C   0  0  0  0  0  0  0  0  0  0  0  0
   -1.1700   -7.6490    7.6020 C   0  0  0  0  0  3  0  0  0  0  0  0
    0.0320   -7.3380    8.2400 C   0  0  0  0  0  3  0  0  0  0  0  0
    1.1330   -6.9170    7.4930 C   0  0  0  0  0  3  0  0  0  0  0  0
    1.0350   -6.7990    6.1040 C   0  0  0  0  0  0  0  0  0  0  0  0
   -0.1680   -7.1060    5.4710 C   0  0  0  0  0  3  0  0  0  0  0  0
   -2.5470   -7.8890    5.4880 C   0  0  0  0  0  2  0  0  0  0  0  0
   -3.9560   -9.8120    6.2960 C   0  0  0  0  0  1  0  0  0  0  0  0
   -2.7940   -9.3850    5.4460 N   0  0  0  0  0  4  0  0  0  0  0  0
   -2.9020   -9.8910    4.0430 C   0  0  0  0  0  1  0  0  0  0  0  0
   -1.9560   -9.8160    5.8590 H   0  0  0  0  0  0  0  0  0  0  0  0
    2.4770   -3.8320    5.9940 C   0  0  0  0  0  3  0  0  0  0  0  0
    3.5320   -3.4380    7.0390 C   0  0  0  0  0  2  0  0  0  0  0  0
    3.1160   -2.1770    7.7980 C   0  0  0  0  0  2  0  0  0  0  0  0
    2.8360   -1.0190    6.8430 C   0  0  0  0  0  2  0  0  0  0  0  0
    1.7960   -1.3950    5.7930 C   0  0  0  0  0  2  0  0  0  0  0  0
    2.1890   -2.6630    5.0360 C   0  0  0  0  0  2  0  0  0  0  0  0
    6.6230   -6.4990    1.1770 C   0  0  0  0  0  0  0  0  0  0  0  0
    6.5210   -6.0160    0.0100 O   0  0  0  0  0  0  0  0  0  0  0  0
    7.5040   -7.3300    1.5750 O   0  0  0  0  0  1  0  0  0  0  0  0
    2.8010   -8.6890    4.5070 C   0  0  0  0  0  2  0  0  0  0  0  0
    3.8310   -9.3660    5.4130 C   0  0  0  0  0  0  0  0  0  0  0  0
    4.0600   -8.8920    6.5360 O   0  0  0  0  0  0  0  0  0  0  0  0
    4.5060  -10.5020    4.9800 N   0  0  0  0  0  0  0  0  0  0  0  0
    4.3250  -11.1540    3.6870 C   0  0  0  0  0  1  0  0  0  0  0  0
    5.5890  -11.0360    5.7880 C   0  0  0  0  0  1  0  0  0  0  0  0
  1 14  1  0  0  0  0
  2  1  2  0  0  0  0
  2 21  1  0  0  0  0
  3  2  1  0  0  0  0
  4  3  2  0  0  0  0
  5  4  1  0  0  0  0
  6  5  2  0  0  0  0
  6  7  1  0  0  0  0
  7  8  2  0  0  0  0
  8  3  1  0  0  0  0
  8  9  1  0  0  0  0
  9  1  1  0  0  0  0
 10 11  1  0  0  0  0
 11 12  2  0  0  0  0
 13 12  1  0  0  0  0
 14 13  2  0  0  0  0
 15 14  1  0  0  0  0
 15 10  2  0  0  0  0
 16 10  1  0  0  0  0
 18 16  1  0  0  0  0
 18 20  1  0  0  0  0
 18 17  1  0  0  0  0
 19 18  1  0  0  0  0
 21 22  1  0  0  0  0
 22 23  1  0  0  0  0
 24 23  1  0  0  0  0
 25 24  1  0  0  0  0
 26 25  1  0  0  0  0
 26 21  1  0  0  0  0
 27 29  1  0  0  0  0
 27  6  1  0  0  0  0
 28 27  2  0  0  0  0
 30  9  1  0  0  0  0
 30 31  1  0  0  0  0
 31 32  2  0  0  0  0
 33 31  1  0  0  0  0
 33 35  1  0  0  0  0
 34 33  1  0  0  0  0
M  END
>  <minimizedAffinity>
-7.71309662

$$$$

 OpenBabel09132200143D

 35 38  0  0  0  0  0  0  0  0999 V2000
    2.8790   -7.1500    4.8500 C   0  0  0  0  0  0  0  0  0  0  0  0
    3.3190   -5.8420    4.6480 C   0  0  0  0  0  0  0  0  0  0  0  0
    3.9720   -5.8170    3.3680 C   0  0  0  0  0  0  0  0  0  0  0  0
    4.5900   -4.8030    2.6020 C   0  0  0  0  0  3  0  0  0  0  0  0
    5.1410   -5.1080    1.3500 C   0  0  0  0  0  3  0  0  0  0  0  0
    5.0780   -6.4020    0.8270 C   0  0  0  0  0  0  0  0  0  0  0  0
    4.4370   -7.4020    1.5720 C   0  0  0  0  0  3  0  0  0  0  0  0
    3.9340   -7.1080    2.8490 C   0  0  0  0  0  0  0  0  0  0  0  0
    3.3860   -7.9220    3.8160 N   0  0  0  0  0  0  0  0  0  0  0  0
   -0.0540   -8.4370    6.8220 C   0  0  0  0  0  0  0  0  0  0  0  0
    0.5730   -8.8090    8.0190 C   0  0  0  0  0  3  0  0  0  0  0  0
    1.9500   -8.6360    8.1750 C   0  0  0  0  0  3  0  0  0  0  0  0
    2.7090   -8.0930    7.1370 C   0  0  0  0  0  3  0  0  0  0  0  0
    2.0940   -7.7160    5.9410 C   0  0  0  0  0  0  0  0  0  0  0  0
    0.7190   -7.8860    5.7910 C   0  0  0  0  0  3  0  0  0  0  0  0
   -1.5260   -8.6330    6.6110 C   0  0  0  0  0  2  0  0  0  0  0  0
   -2.6830   -8.4690    4.3820 C   0  0  0  0  0  1  0  0  0  0  0  0
   -2.0850   -7.7190    5.5380 N   0  0  0  0  0  4  0  0  0  0  0  0
   -3.0280   -6.7070    6.1060 C   0  0  0  0  0  1  0  0  0  0  0  0
   -1.2770   -7.2030    5.1650 H   0  0  0  0  0  0  0  0  0  0  0  0
    3.1880   -4.6270    5.5460 C   0  0  0  0  0  3  0  0  0  0  0  0
    4.4960   -4.1590    6.2000 C   0  0  0  0  0  2  0  0  0  0  0  0
    4.2580   -2.9660    7.1270 C   0  0  0  0  0  2  0  0  0  0  0  0
    3.5740   -1.8160    6.3920 C   0  0  0  0  0  2  0  0  0  0  0  0
    2.2760   -2.2650    5.7290 C   0  0  0  0  0  2  0  0  0  0  0  0
    2.4950   -3.4660    4.8110 C   0  0  0  0  0  2  0  0  0  0  0  0
    5.7140   -6.7470   -0.5050 C   0  0  0  0  0  0  0  0  0  0  0  0
    5.4360   -7.8770   -1.0080 O   0  0  0  0  0  1  0  0  0  0  0  0
    6.4620   -5.8550   -1.0250 O   0  0  0  0  0  0  0  0  0  0  0  0
    3.3780   -9.3840    3.7470 C   0  0  0  0  0  2  0  0  0  0  0  0
    4.5600  -10.0030    4.4950 C   0  0  0  0  0  0  0  0  0  0  0  0
    5.7110   -9.6190    4.2400 O   0  0  0  0  0  0  0  0  0  0  0  0
    4.3450  -10.9900    5.4500 N   0  0  0  0  0  0  0  0  0  0  0  0
    3.0430  -11.5250    5.8390 C   0  0  0  0  0  1  0  0  0  0  0  0
    5.4860  -11.6750    6.0340 C   0  0  0  0  0  1  0  0  0  0  0  0
  1 14  1  0  0  0  0
  2  1  2  0  0  0  0
  2 21  1  0  0  0  0
  3  2  1  0  0  0  0
  4  3  2  0  0  0  0
  5  4  1  0  0  0  0
  6  5  2  0  0  0  0
  6  7  1  0  0  0  0
  7  8  2  0  0  0  0
  8  3  1  0  0  0  0
  8  9  1  0  0  0  0
  9  1  1  0  0  0  0
 10 11  1  0  0  0  0
 11 12  2  0  0  0  0
 13 12  1  0  0  0  0
 14 13  2  0  0  0  0
 15 14  1  0  0  0  0
 15 10  2  0  0  0  0
 16 10  1  0  0  0  0
 17 18  1  0  0  0  0
 18 19  1  0  0  0  0
 18 16  1  0  0  0  0
 20 18  1  0  0  0  0
 21 22  1  0  0  0  0
 22 23  1  0  0  0  0
 24 23  1  0  0  0  0
 25 24  1  0  0  0  0
 26 21  1  0  0  0  0
 26 25  1  0  0  0  0
 27  6  1  0  0  0  0
 28 27  1  0  0  0  0
 29 27  2  0  0  0  0
 30  9  1  0  0  0  0
 30 31  1  0  0  0  0
 31 33  1  0  0  0  0
 32 31  2  0  0  0  0
 33 34  1  0  0  0  0
 33 35  1  0  0  0  0
M  END
>  <minimizedAffinity>
-7.55961275

$$$$

 OpenBabel09132200143D

 35 38  0  0  0  0  0  0  0  0999 V2000
    2.9970   -7.2220    4.7570 C   0  0  0  0  0  0  0  0  0  0  0  0
    3.3640   -5.8920    4.5540 C   0  0  0  0  0  0  0  0  0  0  0  0
    4.0210   -5.8330    3.2760 C   0  0  0  0  0  0  0  0  0  0  0  0
    4.5850   -4.7880    2.5110 C   0  0  0  0  0  3  0  0  0  0  0  0
    5.1580   -5.0640    1.2620 C   0  0  0  0  0  3  0  0  0  0  0  0
    5.1680   -6.3610    0.7420 C   0  0  0  0  0  0  0  0  0  0  0  0
    4.5800   -7.3930    1.4860 C   0  0  0  0  0  3  0  0  0  0  0  0
    4.0560   -7.1250    2.7600 C   0  0  0  0  0  0  0  0  0  0  0  0
    3.5500   -7.9660    3.7260 N   0  0  0  0  0  0  0  0  0  0  0  0
    0.1120   -8.5660    6.7600 C   0  0  0  0  0  0  0  0  0  0  0  0
    0.7710   -8.9980    7.9190 C   0  0  0  0  0  3  0  0  0  0  0  0
    2.1530   -8.8460    8.0400 C   0  0  0  0  0  3  0  0  0  0  0  0
    2.8870   -8.2650    7.0040 C   0  0  0  0  0  3  0  0  0  0  0  0
    2.2390   -7.8280    5.8450 C   0  0  0  0  0  0  0  0  0  0  0  0
    0.8590   -7.9780    5.7310 C   0  0  0  0  0  3  0  0  0  0  0  0
   -1.3690   -8.7390    6.5870 C   0  0  0  0  0  2  0  0  0  0  0  0
   -2.5740   -8.3920    4.4050 C   0  0  0  0  0  1  0  0  0  0  0  0
   -1.9580   -7.7400    5.6100 N   0  0  0  0  0  4  0  0  0  0  0  0
   -2.8970   -6.7910    6.2830 C   0  0  0  0  0  1  0  0  0  0  0  0
   -1.1620   -7.1850    5.2670 H   0  0  0  0  0  0  0  0  0  0  0  0
    3.1630   -4.6840    5.4490 C   0  0  0  0  0  3  0  0  0  0  0  0
    4.4380   -4.1550    6.1220 C   0  0  0  0  0  2  0  0  0  0  0  0
    4.1290   -2.9750    7.0440 C   0  0  0  0  0  2  0  0  0  0  0  0
    3.4030   -1.8580    6.2980 C   0  0  0  0  0  2  0  0  0  0  0  0
    2.1380   -2.3680    5.6170 C   0  0  0  0  0  2  0  0  0  0  0  0
    2.4270   -3.5570    4.7030 C   0  0  0  0  0  2  0  0  0  0  0  0
    5.8280   -6.6730   -0.5870 C   0  0  0  0  0  0  0  0  0  0  0  0
    5.5100   -7.7610   -1.1540 O   0  0  0  0  0  0  0  0  0  0  0  0
    6.6360   -5.7960   -1.0390 O   0  0  0  0  0  1  0  0  0  0  0  0
    3.6230   -9.4270    3.6600 C   0  0  0  0  0  2  0  0  0  0  0  0
    2.3450  -10.0410    3.0850 C   0  0  0  0  0  0  0  0  0  0  0  0
    1.9530   -9.6920    1.9610 O   0  0  0  0  0  0  0  0  0  0  0  0
    1.6280  -10.9810    3.8170 N   0  0  0  0  0  0  0  0  0  0  0  0
    1.9850  -11.4730    5.1450 C   0  0  0  0  0  1  0  0  0  0  0  0
    0.3380  -11.4340    3.3230 C   0  0  0  0  0  1  0  0  0  0  0  0
  1 14  1  0  0  0  0
  2  1  2  0  0  0  0
  2 21  1  0  0  0  0
  3  2  1  0  0  0  0
  4  3  2  0  0  0  0
  5  4  1  0  0  0  0
  6  5  2  0  0  0  0
  6  7  1  0  0  0  0
  7  8  2  0  0  0  0
  8  3  1  0  0  0  0
  8  9  1  0  0  0  0
  9  1  1  0  0  0  0
 10 11  1  0  0  0  0
 11 12  2  0  0  0  0
 13 12  1  0  0  0  0
 14 13  2  0  0  0  0
 15 14  1  0  0  0  0
 15 10  2  0  0  0  0
 16 10  1  0  0  0  0
 17 18  1  0  0  0  0
 18 19  1  0  0  0  0
 18 16  1  0  0  0  0
 20 18  1  0  0  0  0
 21 22  1  0  0  0  0
 22 23  1  0  0  0  0
 24 23  1  0  0  0  0
 25 24  1  0  0  0  0
 26 21  1  0  0  0  0
 26 25  1  0  0  0  0
 27  6  1  0  0  0  0
 28 27  2  0  0  0  0
 29 27  1  0  0  0  0
 30  9  1  0  0  0  0
 31 30  1  0  0  0  0
 31 33  1  0  0  0  0
 32 31  2  0  0  0  0
 33 34  1  0  0  0  0
 35 33  1  0  0  0  0
M  END
>  <minimizedAffinity>
-7.33378029

$$$$

 OpenBabel09132200143D

 35 38  0  0  0  0  0  0  0  0999 V2000
    4.2170   -8.0630    3.6600 C   0  0  0  0  0  0  0  0  0  0  0  0
    4.6960   -6.9620    2.9500 C   0  0  0  0  0  0  0  0  0  0  0  0
    4.2980   -5.7910    3.6830 C   0  0  0  0  0  0  0  0  0  0  0  0
    4.4990   -4.4050    3.5000 C   0  0  0  0  0  3  0  0  0  0  0  0
    3.9740   -3.4920    4.4260 C   0  0  0  0  0  3  0  0  0  0  0  0
    3.2650   -3.9280    5.5480 C   0  0  0  0  0  0  0  0  0  0  0  0
    3.0930   -5.3050    5.7480 C   0  0  0  0  0  3  0  0  0  0  0  0
    3.5710   -6.2140    4.7920 C   0  0  0  0  0  0  0  0  0  0  0  0
    3.4230   -7.5800    4.6880 N   0  0  0  0  0  0  0  0  0  0  0  0
    5.2330  -11.6530    4.1390 C   0  0  0  0  0  0  0  0  0  0  0  0
    4.7500  -12.2270    2.9550 C   0  0  0  0  0  3  0  0  0  0  0  0
    4.0970  -11.4360    2.0070 C   0  0  0  0  0  3  0  0  0  0  0  0
    3.9200  -10.0710    2.2350 C   0  0  0  0  0  3  0  0  0  0  0  0
    4.4000   -9.4880    3.4110 C   0  0  0  0  0  0  0  0  0  0  0  0
    5.0550  -10.2790    4.3530 C   0  0  0  0  0  3  0  0  0  0  0  0
    5.9150  -12.4770    5.1910 C   0  0  0  0  0  2  0  0  0  0  0  0
    4.0520  -13.6000    6.4550 C   0  0  0  0  0  1  0  0  0  0  0  0
    5.1200  -12.5460    6.4800 N   0  0  0  0  0  4  0  0  0  0  0  0
    6.0100  -12.6680    7.6760 C   0  0  0  0  0  1  0  0  0  0  0  0
    4.6360  -11.6410    6.5550 H   0  0  0  0  0  0  0  0  0  0  0  0
    5.4800   -6.9120    1.6520 C   0  0  0  0  0  3  0  0  0  0  0  0
    4.6240   -6.8720    0.3780 C   0  0  0  0  0  2  0  0  0  0  0  0
    5.4970   -6.8790   -0.8770 C   0  0  0  0  0  2  0  0  0  0  0  0
    6.5050   -5.7320   -0.8620 C   0  0  0  0  0  2  0  0  0  0  0  0
    7.3600   -5.7520    0.4010 C   0  0  0  0  0  2  0  0  0  0  0  0
    6.5020   -5.7610    1.6650 C   0  0  0  0  0  2  0  0  0  0  0  0
    2.6560   -2.9430    6.5280 C   0  0  0  0  0  0  0  0  0  0  0  0
    2.2130   -1.8530    6.0580 O   0  0  0  0  0  0  0  0  0  0  0  0
    2.6190   -3.3080    7.7490 O   0  0  0  0  0  1  0  0  0  0  0  0
    2.5330   -8.3740    5.5360 C   0  0  0  0  0  2  0  0  0  0  0  0
    1.1170   -8.4610    4.9620 C   0  0  0  0  0  0  0  0  0  0  0  0
    0.9350   -9.0280    3.8740 O   0  0  0  0  0  0  0  0  0  0  0  0
    0.0460   -7.9070    5.6540 N   0  0  0  0  0  0  0  0  0  0  0  0
    0.1310   -7.2190    6.9380 C   0  0  0  0  0  1  0  0  0  0  0  0
   -1.2620   -7.8620    5.0200 C   0  0  0  0  0  1  0  0  0  0  0  0
  1  9  1  0  0  0  0
  2  1  2  0  0  0  0
  2  3  1  0  0  0  0
  3  8  1  0  0  0  0
  4  3  2  0  0  0  0
  4  5  1  0  0  0  0
  5  6  2  0  0  0  0
  6  7  1  0  0  0  0
  6 27  1  0  0  0  0
  8  7  2  0  0  0  0
  9  8  1  0  0  0  0
  9 30  1  0  0  0  0
 10 15  1  0  0  0  0
 10 16  1  0  0  0  0
 11 10  2  0  0  0  0
 12 13  2  0  0  0  0
 12 11  1  0  0  0  0
 13 14  1  0  0  0  0
 14  1  1  0  0  0  0
 14 15  2  0  0  0  0
 16 18  1  0  0  0  0
 17 18  1  0  0  0  0
 18 20  1  0  0  0  0
 18 19  1  0  0  0  0
 21 26  1  0  0  0  0
 21  2  1  0  0  0  0
 22 21  1  0  0  0  0
 23 24  1  0  0  0  0
 23 22  1  0  0  0  0
 24 25  1  0  0  0  0
 25 26  1  0  0  0  0
 27 29  1  0  0  0  0
 28 27  2  0  0  0  0
 31 30  1  0  0  0  0
 31 33  1  0  0  0  0
 32 31  2  0  0  0  0
 33 34  1  0  0  0  0
 35 33  1  0  0  0  0
M  END
>  <minimizedAffinity>
-7.32996416

$$$$

 OpenBabel09132200143D

 35 38  0  0  0  0  0  0  0  0999 V2000
    1.9440   -9.1870    4.2950 C   0  0  0  0  0  0  0  0  0  0  0  0
    0.8840   -9.9790    3.8540 C   0  0  0  0  0  0  0  0  0  0  0  0
   -0.3170   -9.4060    4.4000 C   0  0  0  0  0  0  0  0  0  0  0  0
   -1.6890   -9.7250    4.2980 C   0  0  0  0  0  3  0  0  0  0  0  0
   -2.6420   -8.9410    4.9630 C   0  0  0  0  0  3  0  0  0  0  0  0
   -2.2640   -7.8290    5.7180 C   0  0  0  0  0  0  0  0  0  0  0  0
   -0.9050   -7.4920    5.7930 C   0  0  0  0  0  3  0  0  0  0  0  0
    0.0530   -8.3090    5.1730 C   0  0  0  0  0  0  0  0  0  0  0  0
    1.4290   -8.2730    5.2010 N   0  0  0  0  0  0  0  0  0  0  0  0
    5.2760   -8.4730    2.7030 C   0  0  0  0  0  0  0  0  0  0  0  0
    6.0930   -9.3970    3.3700 C   0  0  0  0  0  3  0  0  0  0  0  0
    5.5490  -10.2480    4.3340 C   0  0  0  0  0  3  0  0  0  0  0  0
    4.1890  -10.1800    4.6410 C   0  0  0  0  0  3  0  0  0  0  0  0
    3.3660   -9.2660    3.9790 C   0  0  0  0  0  0  0  0  0  0  0  0
    3.9110   -8.4210    3.0150 C   0  0  0  0  0  3  0  0  0  0  0  0
    5.8320   -7.5260    1.6810 C   0  0  0  0  0  2  0  0  0  0  0  0
    5.2020   -5.1630    2.2770 C   0  0  0  0  0  1  0  0  0  0  0  0
    4.9070   -6.3550    1.4120 N   0  0  0  0  0  4  0  0  0  0  0  0
    4.8630   -6.0040   -0.0410 C   0  0  0  0  0  1  0  0  0  0  0  0
    3.9660   -6.6790    1.6730 H   0  0  0  0  0  0  0  0  0  0  0  0
    0.8990  -11.2180    2.9800 C   0  0  0  0  0  3  0  0  0  0  0  0
    1.6990  -11.0830    1.6760 C   0  0  0  0  0  2  0  0  0  0  0  0
    1.6120  -12.3590    0.8370 C   0  0  0  0  0  2  0  0  0  0  0  0
    2.0680  -13.5810    1.6310 C   0  0  0  0  0  2  0  0  0  0  0  0
    1.2890  -13.7260    2.9350 C   0  0  0  0  0  2  0  0  0  0  0  0
    1.3530  -12.4540    3.7770 C   0  0  0  0  0  2  0  0  0  0  0  0
   -3.2860   -7.0050    6.4770 C   0  0  0  0  0  0  0  0  0  0  0  0
   -4.1050   -6.3200    5.7940 O   0  0  0  0  0  0  0  0  0  0  0  0
   -3.2520   -7.0900    7.7480 O   0  0  0  0  0  1  0  0  0  0  0  0
    2.2070   -7.4050    6.0870 C   0  0  0  0  0  2  0  0  0  0  0  0
    2.3180   -5.9790    5.5440 C   0  0  0  0  0  0  0  0  0  0  0  0
    2.2100   -5.7810    4.3240 O   0  0  0  0  0  0  0  0  0  0  0  0
    2.5400   -4.9150    6.4110 N   0  0  0  0  0  0  0  0  0  0  0  0
    2.6830   -5.0180    7.8600 C   0  0  0  0  0  1  0  0  0  0  0  0
    2.7990   -3.5930    5.8630 C   0  0  0  0  0  1  0  0  0  0  0  0
  1  9  1  0  0  0  0
  2  1  2  0  0  0  0
  2  3  1  0  0  0  0
  3  8  1  0  0  0  0
  4  3  2  0  0  0  0
  4  5  1  0  0  0  0
  5  6  2  0  0  0  0
  6  7  1  0  0  0  0
  6 27  1  0  0  0  0
  8  9  1  0  0  0  0
  8  7  2  0  0  0  0
  9 30  1  0  0  0  0
 10 15  2  0  0  0  0
 10 11  1  0  0  0  0
 11 12  2  0  0  0  0
 12 13  1  0  0  0  0
 14  1  1  0  0  0  0
 14 13  2  0  0  0  0
 15 14  1  0  0  0  0
 16 10  1  0  0  0  0
 18 20  1  0  0  0  0
 18 16  1  0  0  0  0
 18 17  1  0  0  0  0
 19 18  1  0  0  0  0
 21 26  1  0  0  0  0
 21  2  1  0  0  0  0
 22 21  1  0  0  0  0
 23 24  1  0  0  0  0
 23 22  1  0  0  0  0
 24 25  1  0  0  0  0
 25 26  1  0  0  0  0
 27 29  1  0  0  0  0
 28 27  2  0  0  0  0
 31 30  1  0  0  0  0
 31 33  1  0  0  0  0
 32 31  2  0  0  0  0
 33 34  1  0  0  0  0
 35 33  1  0  0  0  0
M  END
>  <minimizedAffinity>
-7.21089029

$$$$

 OpenBabel09132200143D

 35 38  0  0  0  0  0  0  0  0999 V2000
    2.9760   -6.6950    4.7510 C   0  0  0  0  0  0  0  0  0  0  0  0
    1.9200   -7.5300    5.1180 C   0  0  0  0  0  0  0  0  0  0  0  0
    2.2900   -8.8630    4.7240 C   0  0  0  0  0  0  0  0  0  0  0  0
    1.6710  -10.1270    4.8430 C   0  0  0  0  0  3  0  0  0  0  0  0
    2.3150  -11.2710    4.3520 C   0  0  0  0  0  3  0  0  0  0  0  0
    3.5770  -11.1920    3.7580 C   0  0  0  0  0  0  0  0  0  0  0  0
    4.2060   -9.9420    3.6690 C   0  0  0  0  0  3  0  0  0  0  0  0
    3.5380   -8.7910    4.1110 C   0  0  0  0  0  0  0  0  0  0  0  0
    3.8730   -7.4580    4.0210 N   0  0  0  0  0  0  0  0  0  0  0  0
    4.2850   -3.4640    6.1630 C   0  0  0  0  0  0  0  0  0  0  0  0
    3.5410   -2.5310    5.4280 C   0  0  0  0  0  3  0  0  0  0  0  0
    2.6150   -2.9640    4.4780 C   0  0  0  0  0  3  0  0  0  0  0  0
    2.4280   -4.3290    4.2520 C   0  0  0  0  0  3  0  0  0  0  0  0
    3.1620   -5.2670    4.9820 C   0  0  0  0  0  0  0  0  0  0  0  0
    4.0820   -4.8310    5.9330 C   0  0  0  0  0  3  0  0  0  0  0  0
    5.3080   -3.0340    7.1730 C   0  0  0  0  0  2  0  0  0  0  0  0
    6.8780   -1.0970    7.5150 C   0  0  0  0  0  1  0  0  0  0  0  0
    6.3860   -2.1540    6.5690 N   0  0  0  0  0  4  0  0  0  0  0  0
    7.5030   -2.9620    5.9910 C   0  0  0  0  0  1  0  0  0  0  0  0
    5.9340   -1.6600    5.7880 H   0  0  0  0  0  0  0  0  0  0  0  0
    0.6040   -7.1890    5.7900 C   0  0  0  0  0  3  0  0  0  0  0  0
   -0.6510   -7.5910    5.0010 C   0  0  0  0  0  2  0  0  0  0  0  0
   -1.9250   -7.1600    5.7290 C   0  0  0  0  0  2  0  0  0  0  0  0
   -1.9730   -7.7190    7.1490 C   0  0  0  0  0  2  0  0  0  0  0  0
   -0.7290   -7.3360    7.9450 C   0  0  0  0  0  2  0  0  0  0  0  0
    0.5530   -7.7460    7.2240 C   0  0  0  0  0  2  0  0  0  0  0  0
    4.2580  -12.4200    3.1840 C   0  0  0  0  0  0  0  0  0  0  0  0
    3.5480  -13.4580    3.0260 O   0  0  0  0  0  1  0  0  0  0  0  0
    5.4900  -12.2970    2.8840 O   0  0  0  0  0  0  0  0  0  0  0  0
    5.0030   -6.9490    3.2420 C   0  0  0  0  0  2  0  0  0  0  0  0
    4.7090   -6.9380    1.7400 C   0  0  0  0  0  0  0  0  0  0  0  0
    3.6730   -7.4740    1.3190 O   0  0  0  0  0  0  0  0  0  0  0  0
    5.5980   -6.3370    0.8570 N   0  0  0  0  0  0  0  0  0  0  0  0
    6.8450   -5.6750    1.2280 C   0  0  0  0  0  1  0  0  0  0  0  0
    5.3810   -6.4750   -0.5740 C   0  0  0  0  0  1  0  0  0  0  0  0
  1 14  1  0  0  0  0
  1  2  2  0  0  0  0
  2 21  1  0  0  0  0
  3  4  1  0  0  0  0
  3  2  1  0  0  0  0
  5  4  2  0  0  0  0
  6  5  1  0  0  0  0
  7  6  2  0  0  0  0
  7  8  1  0  0  0  0
  8  3  2  0  0  0  0
  9  8  1  0  0  0  0
  9  1  1  0  0  0  0
 10 16  1  0  0  0  0
 11 10  2  0  0  0  0
 12 11  1  0  0  0  0
 13 12  2  0  0  0  0
 13 14  1  0  0  0  0
 14 15  2  0  0  0  0
 15 10  1  0  0  0  0
 18 16  1  0  0  0  0
 18 17  1  0  0  0  0
 19 18  1  0  0  0  0
 20 18  1  0  0  0  0
 21 26  1  0  0  0  0
 22 23  1  0  0  0  0
 22 21  1  0  0  0  0
 23 24  1  0  0  0  0
 24 25  1  0  0  0  0
 26 25  1  0  0  0  0
 27  6  1  0  0  0  0
 28 27  1  0  0  0  0
 29 27  2  0  0  0  0
 30  9  1  0  0  0  0
 31 30  1  0  0  0  0
 32 31  2  0  0  0  0
 33 34  1  0  0  0  0
 33 31  1  0  0  0  0
 35 33  1  0  0  0  0
M  END
>  <minimizedAffinity>
-7.09774971

$$$$

 OpenBabel09132200143D

 35 38  0  0  0  0  0  0  0  0999 V2000
    2.3910   -7.4600    4.7730 C   0  0  0  0  0  0  0  0  0  0  0  0
    2.8150   -8.5160    3.9670 C   0  0  0  0  0  0  0  0  0  0  0  0
    3.8840   -8.0110    3.1490 C   0  0  0  0  0  0  0  0  0  0  0  0
    4.7260   -8.5850    2.1700 C   0  0  0  0  0  3  0  0  0  0  0  0
    5.7070   -7.8040    1.5440 C   0  0  0  0  0  3  0  0  0  0  0  0
    5.8870   -6.4600    1.8830 C   0  0  0  0  0  0  0  0  0  0  0  0
    5.0740   -5.8980    2.8770 C   0  0  0  0  0  3  0  0  0  0  0  0
    4.0560   -6.6650    3.4630 C   0  0  0  0  0  0  0  0  0  0  0  0
    3.0590   -6.3220    4.3500 N   0  0  0  0  0  0  0  0  0  0  0  0
   -0.9380   -7.4710    6.5230 C   0  0  0  0  0  0  0  0  0  0  0  0
   -0.5350   -7.4050    7.8630 C   0  0  0  0  0  3  0  0  0  0  0  0
    0.8220   -7.3560    8.1870 C   0  0  0  0  0  3  0  0  0  0  0  0
    1.7840   -7.3750    7.1760 C   0  0  0  0  0  3  0  0  0  0  0  0
    1.3930   -7.4370    5.8360 C   0  0  0  0  0  0  0  0  0  0  0  0
    0.0370   -7.4810    5.5170 C   0  0  0  0  0  3  0  0  0  0  0  0
   -2.3870   -7.5510    6.1400 C   0  0  0  0  0  2  0  0  0  0  0  0
   -4.0960   -9.3020    6.7310 C   0  0  0  0  0  1  0  0  0  0  0  0
   -2.8570   -8.9800    5.9460 N   0  0  0  0  0  4  0  0  0  0  0  0
   -2.9970   -9.3260    4.4980 C   0  0  0  0  0  1  0  0  0  0  0  0
   -2.1070   -9.5720    6.3270 H   0  0  0  0  0  0  0  0  0  0  0  0
    2.3040   -9.9420    3.8900 C   0  0  0  0  0  3  0  0  0  0  0  0
    1.8130  -10.3820    2.5040 C   0  0  0  0  0  2  0  0  0  0  0  0
    1.2670  -11.8110    2.5360 C   0  0  0  0  0  2  0  0  0  0  0  0
    2.3020  -12.7910    3.0830 C   0  0  0  0  0  2  0  0  0  0  0  0
    2.8070  -12.3650    4.4580 C   0  0  0  0  0  2  0  0  0  0  0  0
    3.3420  -10.9340    4.4460 C   0  0  0  0  0  2  0  0  0  0  0  0
    6.9160   -5.6000    1.1760 C   0  0  0  0  0  0  0  0  0  0  0  0
    7.0870   -5.7960   -0.0650 O   0  0  0  0  0  0  0  0  0  0  0  0
    7.5110   -4.7270    1.8890 O   0  0  0  0  0  1  0  0  0  0  0  0
    2.7570   -4.9460    4.7490 C   0  0  0  0  0  2  0  0  0  0  0  0
    3.6870   -4.4520    5.8600 C   0  0  0  0  0  0  0  0  0  0  0  0
    4.5330   -5.2230    6.3350 O   0  0  0  0  0  0  0  0  0  0  0  0
    3.5800   -3.1490    6.3330 N   0  0  0  0  0  0  0  0  0  0  0  0
    2.6290   -2.1480    5.8570 C   0  0  0  0  0  1  0  0  0  0  0  0
    4.3610   -2.7480    7.4920 C   0  0  0  0  0  1  0  0  0  0  0  0
  1 14  1  0  0  0  0
  2  1  2  0  0  0  0
  3  8  1  0  0  0  0
  3  2  1  0  0  0  0
  4  3  2  0  0  0  0
  5  6  2  0  0  0  0
  5  4  1  0  0  0  0
  6  7  1  0  0  0  0
  7  8  2  0  0  0  0
  8  9  1  0  0  0  0
  9 30  1  0  0  0  0
  9  1  1  0  0  0  0
 10 11  1  0  0  0  0
 11 12  2  0  0  0  0
 13 12  1  0  0  0  0
 14 13  2  0  0  0  0
 15 14  1  0  0  0  0
 15 10  2  0  0  0  0
 16 10  1  0  0  0  0
 18 16  1  0  0  0  0
 18 20  1  0  0  0  0
 18 17  1  0  0  0  0
 19 18  1  0  0  0  0
 21  2  1  0  0  0  0
 21 26  1  0  0  0  0
 22 23  1  0  0  0  0
 22 21  1  0  0  0  0
 23 24  1  0  0  0  0
 24 25  1  0  0  0  0
 26 25  1  0  0  0  0
 27  6  1  0  0  0  0
 27 29  1  0  0  0  0
 28 27  2  0  0  0  0
 30 31  1  0  0  0  0
 31 33  1  0  0  0  0
 31 32  2  0  0  0  0
 33 35  1  0  0  0  0
 34 33  1  0  0  0  0
M  END
>  <minimizedAffinity>
-6.93195677

$$$$

 OpenBabel09132200143D

 35 38  0  0  0  0  0  0  0  0999 V2000
    3.4750   -6.5660    3.9100 C   0  0  0  0  0  0  0  0  0  0  0  0
    4.0880   -7.0670    2.7610 C   0  0  0  0  0  0  0  0  0  0  0  0
    3.6240   -8.4190    2.6010 C   0  0  0  0  0  0  0  0  0  0  0  0
    3.8520   -9.4250    1.6360 C   0  0  0  0  0  3  0  0  0  0  0  0
    3.2240  -10.6720    1.7630 C   0  0  0  0  0  3  0  0  0  0  0  0
    2.3540  -10.9400    2.8220 C   0  0  0  0  0  0  0  0  0  0  0  0
    2.1010   -9.9300    3.7620 C   0  0  0  0  0  3  0  0  0  0  0  0
    2.7720   -8.7020    3.6650 C   0  0  0  0  0  0  0  0  0  0  0  0
    2.8000   -7.6160    4.5120 N   0  0  0  0  0  0  0  0  0  0  0  0
    4.7690   -3.5110    5.6820 C   0  0  0  0  0  0  0  0  0  0  0  0
    3.6550   -2.6640    5.6010 C   0  0  0  0  0  3  0  0  0  0  0  0
    2.4870   -3.0980    4.9700 C   0  0  0  0  0  3  0  0  0  0  0  0
    2.4260   -4.3760    4.4130 C   0  0  0  0  0  3  0  0  0  0  0  0
    3.5290   -5.2290    4.4910 C   0  0  0  0  0  0  0  0  0  0  0  0
    4.6910   -4.7950    5.1260 C   0  0  0  0  0  3  0  0  0  0  0  0
    6.0470   -3.0680    6.3300 C   0  0  0  0  0  2  0  0  0  0  0  0
    6.5250   -4.3440    8.4460 C   0  0  0  0  0  1  0  0  0  0  0  0
    5.9670   -3.0860    7.8450 N   0  0  0  0  0  4  0  0  0  0  0  0
    6.5640   -1.8550    8.4480 C   0  0  0  0  0  1  0  0  0  0  0  0
    4.9630   -3.0760    8.0690 H   0  0  0  0  0  0  0  0  0  0  0  0
    5.0670   -6.3990    1.8150 C   0  0  0  0  0  3  0  0  0  0  0  0
    6.4750   -7.0100    1.8010 C   0  0  0  0  0  2  0  0  0  0  0  0
    7.4050   -6.2400    0.8620 C   0  0  0  0  0  2  0  0  0  0  0  0
    6.8310   -6.1620   -0.5510 C   0  0  0  0  0  2  0  0  0  0  0  0
    5.4280   -5.5640   -0.5550 C   0  0  0  0  0  2  0  0  0  0  0  0
    4.4910   -6.3130    0.3900 C   0  0  0  0  0  2  0  0  0  0  0  0
    1.7080  -12.3020    2.9880 C   0  0  0  0  0  0  0  0  0  0  0  0
    0.5180  -12.4370    2.5720 O   0  0  0  0  0  0  0  0  0  0  0  0
    2.4290  -13.2110    3.5160 O   0  0  0  0  0  1  0  0  0  0  0  0
    2.2150   -7.6090    5.8530 C   0  0  0  0  0  2  0  0  0  0  0  0
    3.1390   -8.2540    6.8880 C   0  0  0  0  0  0  0  0  0  0  0  0
    4.2360   -7.7330    7.1350 O   0  0  0  0  0  0  0  0  0  0  0  0
    2.7510   -9.4180    7.5430 N   0  0  0  0  0  0  0  0  0  0  0  0
    1.4900  -10.1250    7.3420 C   0  0  0  0  0  1  0  0  0  0  0  0
    3.7050  -10.1010    8.4020 C   0  0  0  0  0  1  0  0  0  0  0  0
  1 14  1  0  0  0  0
  1  9  1  0  0  0  0
  2  1  2  0  0  0  0
  3  2  1  0  0  0  0
  3  8  1  0  0  0  0
  4  5  1  0  0  0  0
  4  3  2  0  0  0  0
  5  6  2  0  0  0  0
  6 27  1  0  0  0  0
  6  7  1  0  0  0  0
  8  7  2  0  0  0  0
  8  9  1  0  0  0  0
  9 30  1  0  0  0  0
 10 16  1  0  0  0  0
 11 10  1  0  0  0  0
 12 11  2  0  0  0  0
 13 14  2  0  0  0  0
 13 12  1  0  0  0  0
 14 15  1  0  0  0  0
 15 10  2  0  0  0  0
 16 18  1  0  0  0  0
 18 20  1  0  0  0  0
 18 17  1  0  0  0  0
 18 19  1  0  0  0  0
 21  2  1  0  0  0  0
 22 21  1  0  0  0  0
 23 22  1  0  0  0  0
 24 23  1  0  0  0  0
 25 24  1  0  0  0  0
 25 26  1  0  0  0  0
 26 21  1  0  0  0  0
 27 29  1  0  0  0  0
 28 27  2  0  0  0  0
 30 31  1  0  0  0  0
 31 32  2  0  0  0  0
 31 33  1  0  0  0  0
 33 35  1  0  0  0  0
 34 33  1  0  0  0  0
M  END
>  <minimizedAffinity>
-6.87258291

$$$$
