
 OpenBabel09132204463D

 35 38  0  0  0  0  0  0  0  0999 V2000
    2.1800   -6.3620    5.3150 C   0  0  0  0  0  0  0  0  0  0  0  0
    2.7800   -5.1050    5.2280 C   0  0  0  0  0  0  0  0  0  0  0  0
    3.8130   -5.2070    4.2330 C   0  0  0  0  0  0  0  0  0  0  0  0
    4.7360   -4.2910    3.6810 C   0  0  0  0  0  3  0  0  0  0  0  0
    5.6340   -4.7130    2.6900 C   0  0  0  0  0  3  0  0  0  0  0  0
    5.6240   -6.0270    2.2160 C   0  0  0  0  0  0  0  0  0  0  0  0
    4.6870   -6.9280    2.7400 C   0  0  0  0  0  3  0  0  0  0  0  0
    3.8260   -6.5210    3.7700 C   0  0  0  0  0  0  0  0  0  0  0  0
    2.9220   -7.2300    4.5290 N   0  0  0  0  0  0  0  0  0  0  0  0
   -1.2790   -7.5380    6.2090 C   0  0  0  0  0  0  0  0  0  0  0  0
   -1.1700   -7.6490    7.6020 C   0  0  0  0  0  3  0  0  0  0  0  0
    0.0320   -7.3380    8.2400 C   0  0  0  0  0  3  0  0  0  0  0  0
    1.1330   -6.9170    7.4930 C   0  0  0  0  0  3  0  0  0  0  0  0
    1.0350   -6.7990    6.1040 C   0  0  0  0  0  0  0  0  0  0  0  0
   -0.1680   -7.1060    5.4710 C   0  0  0  0  0  3  0  0  0  0  0  0
   -2.5470   -7.8890    5.4880 C   0  0  0  0  0  2  0  0  0  0  0  0
   -3.9560   -9.8120    6.2960 C   0  0  0  0  0  1  0  0  0  0  0  0
   -2.7940   -9.3850    5.4460 N   0  0  0  0  0  4  0  0  0  0  0  0
   -2.9020   -9.8910    4.0430 C   0  0  0  0  0  1  0  0  0  0  0  0
   -1.9560   -9.8160    5.8590 H   0  0  0  0  0  0  0  0  0  0  0  0
    2.4770   -3.8320    5.9940 C   0  0  0  0  0  3  0  0  0  0  0  0
    3.5320   -3.4380    7.0390 C   0  0  0  0  0  2  0  0  0  0  0  0
    3.1160   -2.1770    7.7980 C   0  0  0  0  0  2  0  0  0  0  0  0
    2.8360   -1.0190    6.8430 C   0  0  0  0  0  2  0  0  0  0  0  0
    1.7960   -1.3950    5.7930 C   0  0  0  0  0  2  0  0  0  0  0  0
    2.1890   -2.6630    5.0360 C   0  0  0  0  0  2  0  0  0  0  0  0
    6.6230   -6.4990    1.1770 C   0  0  0  0  0  0  0  0  0  0  0  0
    6.5210   -6.0160    0.0100 O   0  0  0  0  0  0  0  0  0  0  0  0
    7.5040   -7.3300    1.5750 O   0  0  0  0  0  1  0  0  0  0  0  0
    2.8010   -8.6890    4.5070 C   0  0  0  0  0  2  0  0  0  0  0  0
    3.8310   -9.3660    5.4130 C   0  0  0  0  0  0  0  0  0  0  0  0
    4.0600   -8.8920    6.5360 O   0  0  0  0  0  0  0  0  0  0  0  0
    4.5060  -10.5020    4.9800 N   0  0  0  0  0  0  0  0  0  0  0  0
    4.3250  -11.1540    3.6870 C   0  0  0  0  0  1  0  0  0  0  0  0
    5.5890  -11.0360    5.7880 C   0  0  0  0  0  1  0  0  0  0  0  0
  1 14  1  0  0  0  0
  2  1  2  0  0  0  0
  2 21  1  0  0  0  0
  3  2  1  0  0  0  0
  4  3  2  0  0  0  0
  5  4  1  0  0  0  0
  6  5  2  0  0  0  0
  6  7  1  0  0  0  0
  7  8  2  0  0  0  0
  8  3  1  0  0  0  0
  8  9  1  0  0  0  0
  9  1  1  0  0  0  0
 10 11  1  0  0  0  0
 11 12  2  0  0  0  0
 13 12  1  0  0  0  0
 14 13  2  0  0  0  0
 15 14  1  0  0  0  0
 15 10  2  0  0  0  0
 16 10  1  0  0  0  0
 18 16  1  0  0  0  0
 18 20  1  0  0  0  0
 18 17  1  0  0  0  0
 19 18  1  0  0  0  0
 21 22  1  0  0  0  0
 22 23  1  0  0  0  0
 24 23  1  0  0  0  0
 25 24  1  0  0  0  0
 26 25  1  0  0  0  0
 26 21  1  0  0  0  0
 27 29  1  0  0  0  0
 27  6  1  0  0  0  0
 28 27  2  0  0  0  0
 30  9  1  0  0  0  0
 30 31  1  0  0  0  0
 31 32  2  0  0  0  0
 33 31  1  0  0  0  0
 33 35  1  0  0  0  0
 34 33  1  0  0  0  0
M  END
>  <minimizedAffinity>
-7.71309662

$$$$
