
 OpenBabel09132204463D

 35 38  0  0  0  0  0  0  0  0999 V2000
    2.9760   -6.6950    4.7510 C   0  0  0  0  0  0  0  0  0  0  0  0
    1.9200   -7.5300    5.1180 C   0  0  0  0  0  0  0  0  0  0  0  0
    2.2900   -8.8630    4.7240 C   0  0  0  0  0  0  0  0  0  0  0  0
    1.6710  -10.1270    4.8430 C   0  0  0  0  0  3  0  0  0  0  0  0
    2.3150  -11.2710    4.3520 C   0  0  0  0  0  3  0  0  0  0  0  0
    3.5770  -11.1920    3.7580 C   0  0  0  0  0  0  0  0  0  0  0  0
    4.2060   -9.9420    3.6690 C   0  0  0  0  0  3  0  0  0  0  0  0
    3.5380   -8.7910    4.1110 C   0  0  0  0  0  0  0  0  0  0  0  0
    3.8730   -7.4580    4.0210 N   0  0  0  0  0  0  0  0  0  0  0  0
    4.2850   -3.4640    6.1630 C   0  0  0  0  0  0  0  0  0  0  0  0
    3.5410   -2.5310    5.4280 C   0  0  0  0  0  3  0  0  0  0  0  0
    2.6150   -2.9640    4.4780 C   0  0  0  0  0  3  0  0  0  0  0  0
    2.4280   -4.3290    4.2520 C   0  0  0  0  0  3  0  0  0  0  0  0
    3.1620   -5.2670    4.9820 C   0  0  0  0  0  0  0  0  0  0  0  0
    4.0820   -4.8310    5.9330 C   0  0  0  0  0  3  0  0  0  0  0  0
    5.3080   -3.0340    7.1730 C   0  0  0  0  0  2  0  0  0  0  0  0
    6.8780   -1.0970    7.5150 C   0  0  0  0  0  1  0  0  0  0  0  0
    6.3860   -2.1540    6.5690 N   0  0  0  0  0  4  0  0  0  0  0  0
    7.5030   -2.9620    5.9910 C   0  0  0  0  0  1  0  0  0  0  0  0
    5.9340   -1.6600    5.7880 H   0  0  0  0  0  0  0  0  0  0  0  0
    0.6040   -7.1890    5.7900 C   0  0  0  0  0  3  0  0  0  0  0  0
   -0.6510   -7.5910    5.0010 C   0  0  0  0  0  2  0  0  0  0  0  0
   -1.9250   -7.1600    5.7290 C   0  0  0  0  0  2  0  0  0  0  0  0
   -1.9730   -7.7190    7.1490 C   0  0  0  0  0  2  0  0  0  0  0  0
   -0.7290   -7.3360    7.9450 C   0  0  0  0  0  2  0  0  0  0  0  0
    0.5530   -7.7460    7.2240 C   0  0  0  0  0  2  0  0  0  0  0  0
    4.2580  -12.4200    3.1840 C   0  0  0  0  0  0  0  0  0  0  0  0
    3.5480  -13.4580    3.0260 O   0  0  0  0  0  1  0  0  0  0  0  0
    5.4900  -12.2970    2.8840 O   0  0  0  0  0  0  0  0  0  0  0  0
    5.0030   -6.9490    3.2420 C   0  0  0  0  0  2  0  0  0  0  0  0
    4.7090   -6.9380    1.7400 C   0  0  0  0  0  0  0  0  0  0  0  0
    3.6730   -7.4740    1.3190 O   0  0  0  0  0  0  0  0  0  0  0  0
    5.5980   -6.3370    0.8570 N   0  0  0  0  0  0  0  0  0  0  0  0
    6.8450   -5.6750    1.2280 C   0  0  0  0  0  1  0  0  0  0  0  0
    5.3810   -6.4750   -0.5740 C   0  0  0  0  0  1  0  0  0  0  0  0
  1 14  1  0  0  0  0
  1  2  2  0  0  0  0
  2 21  1  0  0  0  0
  3  4  1  0  0  0  0
  3  2  1  0  0  0  0
  5  4  2  0  0  0  0
  6  5  1  0  0  0  0
  7  6  2  0  0  0  0
  7  8  1  0  0  0  0
  8  3  2  0  0  0  0
  9  8  1  0  0  0  0
  9  1  1  0  0  0  0
 10 16  1  0  0  0  0
 11 10  2  0  0  0  0
 12 11  1  0  0  0  0
 13 12  2  0  0  0  0
 13 14  1  0  0  0  0
 14 15  2  0  0  0  0
 15 10  1  0  0  0  0
 18 16  1  0  0  0  0
 18 17  1  0  0  0  0
 19 18  1  0  0  0  0
 20 18  1  0  0  0  0
 21 26  1  0  0  0  0
 22 23  1  0  0  0  0
 22 21  1  0  0  0  0
 23 24  1  0  0  0  0
 24 25  1  0  0  0  0
 26 25  1  0  0  0  0
 27  6  1  0  0  0  0
 28 27  1  0  0  0  0
 29 27  2  0  0  0  0
 30  9  1  0  0  0  0
 31 30  1  0  0  0  0
 32 31  2  0  0  0  0
 33 34  1  0  0  0  0
 33 31  1  0  0  0  0
 35 33  1  0  0  0  0
M  END
>  <minimizedAffinity>
-7.09774971

$$$$
