
 OpenBabel09132204463D

 35 38  0  0  0  0  0  0  0  0999 V2000
    2.9970   -7.2220    4.7570 C   0  0  0  0  0  0  0  0  0  0  0  0
    3.3640   -5.8920    4.5540 C   0  0  0  0  0  0  0  0  0  0  0  0
    4.0210   -5.8330    3.2760 C   0  0  0  0  0  0  0  0  0  0  0  0
    4.5850   -4.7880    2.5110 C   0  0  0  0  0  3  0  0  0  0  0  0
    5.1580   -5.0640    1.2620 C   0  0  0  0  0  3  0  0  0  0  0  0
    5.1680   -6.3610    0.7420 C   0  0  0  0  0  0  0  0  0  0  0  0
    4.5800   -7.3930    1.4860 C   0  0  0  0  0  3  0  0  0  0  0  0
    4.0560   -7.1250    2.7600 C   0  0  0  0  0  0  0  0  0  0  0  0
    3.5500   -7.9660    3.7260 N   0  0  0  0  0  0  0  0  0  0  0  0
    0.1120   -8.5660    6.7600 C   0  0  0  0  0  0  0  0  0  0  0  0
    0.7710   -8.9980    7.9190 C   0  0  0  0  0  3  0  0  0  0  0  0
    2.1530   -8.8460    8.0400 C   0  0  0  0  0  3  0  0  0  0  0  0
    2.8870   -8.2650    7.0040 C   0  0  0  0  0  3  0  0  0  0  0  0
    2.2390   -7.8280    5.8450 C   0  0  0  0  0  0  0  0  0  0  0  0
    0.8590   -7.9780    5.7310 C   0  0  0  0  0  3  0  0  0  0  0  0
   -1.3690   -8.7390    6.5870 C   0  0  0  0  0  2  0  0  0  0  0  0
   -2.5740   -8.3920    4.4050 C   0  0  0  0  0  1  0  0  0  0  0  0
   -1.9580   -7.7400    5.6100 N   0  0  0  0  0  4  0  0  0  0  0  0
   -2.8970   -6.7910    6.2830 C   0  0  0  0  0  1  0  0  0  0  0  0
   -1.1620   -7.1850    5.2670 H   0  0  0  0  0  0  0  0  0  0  0  0
    3.1630   -4.6840    5.4490 C   0  0  0  0  0  3  0  0  0  0  0  0
    4.4380   -4.1550    6.1220 C   0  0  0  0  0  2  0  0  0  0  0  0
    4.1290   -2.9750    7.0440 C   0  0  0  0  0  2  0  0  0  0  0  0
    3.4030   -1.8580    6.2980 C   0  0  0  0  0  2  0  0  0  0  0  0
    2.1380   -2.3680    5.6170 C   0  0  0  0  0  2  0  0  0  0  0  0
    2.4270   -3.5570    4.7030 C   0  0  0  0  0  2  0  0  0  0  0  0
    5.8280   -6.6730   -0.5870 C   0  0  0  0  0  0  0  0  0  0  0  0
    5.5100   -7.7610   -1.1540 O   0  0  0  0  0  0  0  0  0  0  0  0
    6.6360   -5.7960   -1.0390 O   0  0  0  0  0  1  0  0  0  0  0  0
    3.6230   -9.4270    3.6600 C   0  0  0  0  0  2  0  0  0  0  0  0
    2.3450  -10.0410    3.0850 C   0  0  0  0  0  0  0  0  0  0  0  0
    1.9530   -9.6920    1.9610 O   0  0  0  0  0  0  0  0  0  0  0  0
    1.6280  -10.9810    3.8170 N   0  0  0  0  0  0  0  0  0  0  0  0
    1.9850  -11.4730    5.1450 C   0  0  0  0  0  1  0  0  0  0  0  0
    0.3380  -11.4340    3.3230 C   0  0  0  0  0  1  0  0  0  0  0  0
  1 14  1  0  0  0  0
  2  1  2  0  0  0  0
  2 21  1  0  0  0  0
  3  2  1  0  0  0  0
  4  3  2  0  0  0  0
  5  4  1  0  0  0  0
  6  5  2  0  0  0  0
  6  7  1  0  0  0  0
  7  8  2  0  0  0  0
  8  3  1  0  0  0  0
  8  9  1  0  0  0  0
  9  1  1  0  0  0  0
 10 11  1  0  0  0  0
 11 12  2  0  0  0  0
 13 12  1  0  0  0  0
 14 13  2  0  0  0  0
 15 14  1  0  0  0  0
 15 10  2  0  0  0  0
 16 10  1  0  0  0  0
 17 18  1  0  0  0  0
 18 19  1  0  0  0  0
 18 16  1  0  0  0  0
 20 18  1  0  0  0  0
 21 22  1  0  0  0  0
 22 23  1  0  0  0  0
 24 23  1  0  0  0  0
 25 24  1  0  0  0  0
 26 21  1  0  0  0  0
 26 25  1  0  0  0  0
 27  6  1  0  0  0  0
 28 27  2  0  0  0  0
 29 27  1  0  0  0  0
 30  9  1  0  0  0  0
 31 30  1  0  0  0  0
 31 33  1  0  0  0  0
 32 31  2  0  0  0  0
 33 34  1  0  0  0  0
 35 33  1  0  0  0  0
M  END
>  <minimizedAffinity>
-7.33378029

$$$$
