
 OpenBabel09132204463D

 35 38  0  0  0  0  0  0  0  0999 V2000
    3.4750   -6.5660    3.9100 C   0  0  0  0  0  0  0  0  0  0  0  0
    4.0880   -7.0670    2.7610 C   0  0  0  0  0  0  0  0  0  0  0  0
    3.6240   -8.4190    2.6010 C   0  0  0  0  0  0  0  0  0  0  0  0
    3.8520   -9.4250    1.6360 C   0  0  0  0  0  3  0  0  0  0  0  0
    3.2240  -10.6720    1.7630 C   0  0  0  0  0  3  0  0  0  0  0  0
    2.3540  -10.9400    2.8220 C   0  0  0  0  0  0  0  0  0  0  0  0
    2.1010   -9.9300    3.7620 C   0  0  0  0  0  3  0  0  0  0  0  0
    2.7720   -8.7020    3.6650 C   0  0  0  0  0  0  0  0  0  0  0  0
    2.8000   -7.6160    4.5120 N   0  0  0  0  0  0  0  0  0  0  0  0
    4.7690   -3.5110    5.6820 C   0  0  0  0  0  0  0  0  0  0  0  0
    3.6550   -2.6640    5.6010 C   0  0  0  0  0  3  0  0  0  0  0  0
    2.4870   -3.0980    4.9700 C   0  0  0  0  0  3  0  0  0  0  0  0
    2.4260   -4.3760    4.4130 C   0  0  0  0  0  3  0  0  0  0  0  0
    3.5290   -5.2290    4.4910 C   0  0  0  0  0  0  0  0  0  0  0  0
    4.6910   -4.7950    5.1260 C   0  0  0  0  0  3  0  0  0  0  0  0
    6.0470   -3.0680    6.3300 C   0  0  0  0  0  2  0  0  0  0  0  0
    6.5250   -4.3440    8.4460 C   0  0  0  0  0  1  0  0  0  0  0  0
    5.9670   -3.0860    7.8450 N   0  0  0  0  0  4  0  0  0  0  0  0
    6.5640   -1.8550    8.4480 C   0  0  0  0  0  1  0  0  0  0  0  0
    4.9630   -3.0760    8.0690 H   0  0  0  0  0  0  0  0  0  0  0  0
    5.0670   -6.3990    1.8150 C   0  0  0  0  0  3  0  0  0  0  0  0
    6.4750   -7.0100    1.8010 C   0  0  0  0  0  2  0  0  0  0  0  0
    7.4050   -6.2400    0.8620 C   0  0  0  0  0  2  0  0  0  0  0  0
    6.8310   -6.1620   -0.5510 C   0  0  0  0  0  2  0  0  0  0  0  0
    5.4280   -5.5640   -0.5550 C   0  0  0  0  0  2  0  0  0  0  0  0
    4.4910   -6.3130    0.3900 C   0  0  0  0  0  2  0  0  0  0  0  0
    1.7080  -12.3020    2.9880 C   0  0  0  0  0  0  0  0  0  0  0  0
    0.5180  -12.4370    2.5720 O   0  0  0  0  0  0  0  0  0  0  0  0
    2.4290  -13.2110    3.5160 O   0  0  0  0  0  1  0  0  0  0  0  0
    2.2150   -7.6090    5.8530 C   0  0  0  0  0  2  0  0  0  0  0  0
    3.1390   -8.2540    6.8880 C   0  0  0  0  0  0  0  0  0  0  0  0
    4.2360   -7.7330    7.1350 O   0  0  0  0  0  0  0  0  0  0  0  0
    2.7510   -9.4180    7.5430 N   0  0  0  0  0  0  0  0  0  0  0  0
    1.4900  -10.1250    7.3420 C   0  0  0  0  0  1  0  0  0  0  0  0
    3.7050  -10.1010    8.4020 C   0  0  0  0  0  1  0  0  0  0  0  0
  1 14  1  0  0  0  0
  1  9  1  0  0  0  0
  2  1  2  0  0  0  0
  3  2  1  0  0  0  0
  3  8  1  0  0  0  0
  4  5  1  0  0  0  0
  4  3  2  0  0  0  0
  5  6  2  0  0  0  0
  6 27  1  0  0  0  0
  6  7  1  0  0  0  0
  8  7  2  0  0  0  0
  8  9  1  0  0  0  0
  9 30  1  0  0  0  0
 10 16  1  0  0  0  0
 11 10  1  0  0  0  0
 12 11  2  0  0  0  0
 13 14  2  0  0  0  0
 13 12  1  0  0  0  0
 14 15  1  0  0  0  0
 15 10  2  0  0  0  0
 16 18  1  0  0  0  0
 18 20  1  0  0  0  0
 18 17  1  0  0  0  0
 18 19  1  0  0  0  0
 21  2  1  0  0  0  0
 22 21  1  0  0  0  0
 23 22  1  0  0  0  0
 24 23  1  0  0  0  0
 25 24  1  0  0  0  0
 25 26  1  0  0  0  0
 26 21  1  0  0  0  0
 27 29  1  0  0  0  0
 28 27  2  0  0  0  0
 30 31  1  0  0  0  0
 31 32  2  0  0  0  0
 31 33  1  0  0  0  0
 33 35  1  0  0  0  0
 34 33  1  0  0  0  0
M  END
>  <minimizedAffinity>
-6.87258291

$$$$
