
 OpenBabel09122222393D

 38 41  0  0  1  0  0  0  0  0999 V2000
    4.7080   -5.1550    3.5600 C   0  0  1  0  0  3  0  0  0  0  0  0
    3.8010   -4.2200    3.7200 N   0  0  0  0  0  0  0  0  0  0  0  0
    2.5170   -4.3110    4.6740 S   0  0  0  0  0  0  0  0  0  0  0  0
    2.8160   -3.7150    5.9610 O   0  0  0  0  0  0  0  0  0  0  0  0
    1.3500   -3.8720    3.9350 O   0  0  0  0  0  0  0  0  0  0  0  0
    2.2790   -6.0250    4.9940 C   0  0  0  0  0  0  0  0  0  0  0  0
    1.0360   -6.4800    5.4420 C   0  0  0  0  0  3  0  0  0  0  0  0
    0.8670   -7.8420    5.6630 C   0  0  0  0  0  0  0  0  0  0  0  0
    1.9250   -8.7260    5.4480 C   0  0  0  0  0  3  0  0  0  0  0  0
    3.1640   -8.2480    5.0060 C   0  0  0  0  0  3  0  0  0  0  0  0
    3.3440   -6.8860    4.7500 C   0  0  0  0  0  0  0  0  0  0  0  0
    4.5210   -6.4160    4.1760 N   0  0  0  0  0  0  0  0  0  0  0  0
    3.9310   -3.3410    3.2270 H   0  0  0  0  0  0  0  0  0  0  0  0
    5.2800   -7.0820    4.0180 H   0  0  0  0  0  0  0  0  0  0  0  0
    8.0170   -3.6560    2.3730 N   0  0  0  0  0  0  0  0  0  0  0  0
    6.9670   -3.9970    3.1940 C   0  0  0  0  0  0  0  0  0  0  0  0
    6.8380   -3.5670    4.3450 O   0  0  0  0  0  0  0  0  0  0  0  0
    5.9060   -4.9140    2.6710 C   0  0  0  0  0  0  0  0  0  0  0  0
    6.0500   -5.4300    1.4360 C   0  0  0  0  0  0  0  0  0  0  0  0
    7.1770   -5.0420    0.5690 C   0  0  0  0  0  0  0  0  0  0  0  0
    7.3070   -5.4640   -0.7630 C   0  0  0  0  0  3  0  0  0  0  0  0
    8.3850   -5.0340   -1.5330 C   0  0  0  0  0  3  0  0  0  0  0  0
    9.2990   -4.1780   -0.9550 C   0  0  0  0  0  3  0  0  0  0  0  0
    9.1940   -3.7330    0.3130 N   0  0  0  0  0  0  0  0  0  0  0  0
    8.1450   -4.1560    1.0560 C   0  0  0  0  0  0  0  0  0  0  0  0
    5.1320   -6.3430    0.9380 O   0  0  0  0  0  0  0  0  0  0  0  0
    5.5920   -6.9530    0.3310 H   0  0  0  0  0  0  0  0  0  0  0  0
    8.9840   -2.6560    2.8390 C   0  0  0  0  0  2  0  0  0  0  0  0
    8.5290   -1.2400    2.4600 C   0  0  0  0  0  2  0  0  0  0  0  0
    9.6120   -0.5110    0.2740 C   0  0  0  0  0  1  0  0  0  0  0  0
    9.6310   -0.3960    1.7990 C   0  0  0  0  0  3  0  0  0  0  0  0
    9.4780    1.0710    2.2110 C   0  0  0  0  0  1  0  0  0  0  0  0
   -0.4280   -8.3580    5.9600 N   0  0  0  0  0  0  0  0  0  0  0  0
   -0.7310   -8.2350    6.9300 H   0  0  0  0  0  0  0  0  0  0  0  0
   -1.6890   -7.8020    4.9550 S   0  0  0  0  0  0  0  0  0  0  0  0
   -3.0710   -8.6940    5.6320 C   0  0  0  0  0  1  0  0  0  0  0  0
   -1.8500   -6.4030    5.2880 O   0  0  0  0  0  0  0  0  0  0  0  0
   -1.4680   -8.2420    3.5970 O   0  0  0  0  0  0  0  0  0  0  0  0
  1 18  1  6  0  0  0
  1  2  1  0  0  0  0
  1 12  1  0  0  0  0
  2  3  1  0  0  0  0
  3  6  1  0  0  0  0
  3  4  2  0  0  0  0
  5  3  2  0  0  0  0
  6  7  1  0  0  0  0
  7  8  2  0  0  0  0
  8 33  1  0  0  0  0
  9  8  1  0  0  0  0
 10  9  2  0  0  0  0
 11  6  2  0  0  0  0
 11 10  1  0  0  0  0
 12 11  1  0  0  0  0
 13  2  1  0  0  0  0
 14 12  1  0  0  0  0
 15 28  1  0  0  0  0
 15 16  1  0  0  0  0
 16 17  2  0  0  0  0
 18 16  1  0  0  0  0
 19 18  2  0  0  0  0
 20 25  1  0  0  0  0
 20 19  1  0  0  0  0
 21 20  2  0  0  0  0
 22 23  2  0  0  0  0
 22 21  1  0  0  0  0
 23 24  1  0  0  0  0
 24 25  2  0  0  0  0
 25 15  1  0  0  0  0
 26 19  1  0  0  0  0
 27 26  1  0  0  0  0
 29 28  1  0  0  0  0
 30 31  1  0  0  0  0
 31 32  1  0  0  0  0
 31 29  1  0  0  0  0
 33 34  1  0  0  0  0
 35 37  2  0  0  0  0
 35 36  1  0  0  0  0
 35 33  1  0  0  0  0
 38 35  2  0  0  0  0
M  END
>  <minimizedAffinity>
-4.81195784

$$$$
