
 OpenBabel09122220253D

 46 49  0  0  1  0  0  0  0  0999 V2000
    8.2980   -4.3180    1.4890 C   0  0  1  0  0  3  0  0  0  0  0  0
    8.9070   -5.4480    1.7710 N   0  0  0  0  0  0  0  0  0  0  0  0
    8.4340   -6.8830    1.2490 S   0  0  0  0  0  0  0  0  0  0  0  0
    8.9980   -7.1800   -0.0540 O   0  0  0  0  0  0  0  0  0  0  0  0
    8.5970   -7.8480    2.3220 O   0  0  0  0  0  0  0  0  0  0  0  0
    6.7010   -6.7020    1.0100 C   0  0  0  0  0  0  0  0  0  0  0  0
    5.8220   -7.7140    1.3840 C   0  0  0  0  0  3  0  0  0  0  0  0
    4.4570   -7.4390    1.3950 C   0  0  0  0  0  0  0  0  0  0  0  0
    3.9750   -6.2330    0.8910 C   0  0  0  0  0  3  0  0  0  0  0  0
    4.8770   -5.2440    0.4870 C   0  0  0  0  0  3  0  0  0  0  0  0
    6.2490   -5.4390    0.6460 C   0  0  0  0  0  0  0  0  0  0  0  0
    7.1290   -4.3490    0.6770 N   0  0  0  0  0  0  0  0  0  0  0  0
    9.6990   -5.4170    2.4020 H   0  0  0  0  0  0  0  0  0  0  0  0
    6.7140   -3.4290    0.4990 H   0  0  0  0  0  0  0  0  0  0  0  0
    9.0260   -1.8490    4.2880 N   0  0  0  0  0  0  0  0  0  0  0  0
    8.9810   -3.0520    3.6100 C   0  0  0  0  0  0  0  0  0  0  0  0
    9.0400   -4.1500    4.1780 O   0  0  0  0  0  0  0  0  0  0  0  0
    8.7670   -3.0380    2.1290 C   0  0  0  0  0  0  0  0  0  0  0  0
    8.8460   -1.8600    1.4920 C   0  0  0  0  0  0  0  0  0  0  0  0
    9.0800   -0.6070    2.2130 C   0  0  0  0  0  0  0  0  0  0  0  0
    9.1940    0.6220    1.5540 C   0  0  0  0  0  3  0  0  0  0  0  0
    9.3260    1.7930    2.2910 C   0  0  0  0  0  3  0  0  0  0  0  0
    9.3310    1.6940    3.6670 C   0  0  0  0  0  3  0  0  0  0  0  0
    9.2310    0.5250    4.3370 N   0  0  0  0  0  0  0  0  0  0  0  0
    9.1120   -0.6110    3.6080 C   0  0  0  0  0  0  0  0  0  0  0  0
    8.5410   -1.7350    0.1490 O   0  0  0  0  0  0  0  0  0  0  0  0
    7.5770   -1.4300    0.1440 H   0  0  0  0  0  0  0  0  0  0  0  0
    8.9110   -1.8570    5.7450 C   0  0  0  0  0  2  0  0  0  0  0  0
    7.8600   -2.8290    6.2920 C   0  0  0  0  0  2  0  0  0  0  0  0
    5.7400   -4.0670    5.5990 C   0  0  0  0  0  1  0  0  0  0  0  0
    6.4590   -2.7160    5.6620 C   0  0  0  0  0  3  0  0  0  0  0  0
    5.6110   -1.7330    6.4730 C   0  0  0  0  0  1  0  0  0  0  0  0
    3.6310   -8.3030    2.1760 N   0  0  0  0  0  0  0  0  0  0  0  0
    2.6470   -8.2620    1.8990 H   0  0  0  0  0  0  0  0  0  0  0  0
    3.6210   -8.0170    3.8610 S   0  0  0  0  0  0  0  0  0  0  0  0
    2.4950   -8.7400    4.3920 O   0  0  0  0  0  0  0  0  0  0  0  0
    4.9640   -8.3190    4.3050 O   0  0  0  0  0  0  0  0  0  0  0  0
    3.4450   -6.3890    3.9620 N   0  0  0  0  0  0  0  0  0  0  0  0
    2.5650   -5.6640    4.7610 C   0  0  0  0  0  0  0  0  0  0  0  0
    2.3070   -4.5100    4.4450 O   0  0  0  0  0  0  0  0  0  0  0  0
    3.9010   -5.8730    3.2230 H   0  0  0  0  0  0  0  0  0  0  0  0
    2.1170   -6.2940    5.8630 O   0  0  0  0  0  0  0  0  0  0  0  0
    0.7100   -6.1530    6.1770 C   0  0  0  0  0  2  0  0  0  0  0  0
   -0.0690   -7.3940    5.7280 C   0  0  0  0  0  0  0  0  0  0  0  0
    0.2470   -8.4840    6.2950 O   0  0  0  0  0  1  0  0  0  0  0  0
   -0.9570   -7.2230    4.8500 O   0  0  0  0  0  0  0  0  0  0  0  0
  1  2  1  0  0  0  0
  1 18  1  1  0  0  0
  2 13  1  0  0  0  0
  3  2  1  0  0  0  0
  3  5  2  0  0  0  0
  4  3  2  0  0  0  0
  6  3  1  0  0  0  0
  6  7  1  0  0  0  0
  7  8  2  0  0  0  0
  8 33  1  0  0  0  0
  9  8  1  0  0  0  0
 10 11  1  0  0  0  0
 10  9  2  0  0  0  0
 11 12  1  0  0  0  0
 11  6  2  0  0  0  0
 12  1  1  0  0  0  0
 14 12  1  0  0  0  0
 15 28  1  0  0  0  0
 16 17  2  0  0  0  0
 16 15  1  0  0  0  0
 18 16  1  0  0  0  0
 19 18  2  0  0  0  0
 19 20  1  0  0  0  0
 20 25  1  0  0  0  0
 21 20  2  0  0  0  0
 21 22  1  0  0  0  0
 22 23  2  0  0  0  0
 23 24  1  0  0  0  0
 25 15  1  0  0  0  0
 25 24  2  0  0  0  0
 26 19  1  0  0  0  0
 27 26  1  0  0  0  0
 28 29  1  0  0  0  0
 30 31  1  0  0  0  0
 31 29  1  0  0  0  0
 31 32  1  0  0  0  0
 33 35  1  0  0  0  0
 34 33  1  0  0  0  0
 35 38  1  0  0  0  0
 35 37  2  0  0  0  0
 35 36  2  0  0  0  0
 38 39  1  0  0  0  0
 39 42  1  0  0  0  0
 40 39  2  0  0  0  0
 41 38  1  0  0  0  0
 42 43  1  0  0  0  0
 44 43  1  0  0  0  0
 44 45  1  0  0  0  0
 46 44  2  0  0  0  0
M  END
>  <minimizedAffinity>
0.78812176

$$$$
