44608614
  -OEChem-09042221413D

 80 85  0     1  0  0  0  0  0999 V2000
   -6.0843    0.6362   -1.0418 S   0  0  0  0  0  0  0  0  0  0  0  0
    6.6226   -3.1749   -0.3689 O   0  0  0  0  0  0  0  0  0  0  0  0
   -1.0845   -4.0937   -0.2879 O   0  0  0  0  0  0  0  0  0  0  0  0
   -4.2965    2.8981    0.2290 O   0  0  0  0  0  0  0  0  0  0  0  0
   -6.4616    0.3671   -2.4180 O   0  0  0  0  0  0  0  0  0  0  0  0
   -6.7789    1.6587   -0.2826 O   0  0  0  0  0  0  0  0  0  0  0  0
    0.7710   -0.2380   -0.9127 N   0  0  0  0  0  0  0  0  0  0  0  0
   -1.1381   -2.5683    1.4794 N   0  0  0  0  0  0  0  0  0  0  0  0
   -4.3921    0.9228   -1.0300 N   0  0  0  0  0  0  0  0  0  0  0  0
   -6.1452   -0.8610   -0.1506 N   0  0  1  0  0  0  0  0  0  0  0  0
    3.0820    2.4035    0.2345 C   0  0  0  0  0  0  0  0  0  0  0  0
    3.2308    3.6324   -0.6794 C   0  0  0  0  0  0  0  0  0  0  0  0
    2.9149    2.8273    1.7042 C   0  0  0  0  0  0  0  0  0  0  0  0
    1.9568    1.4924   -0.2214 C   0  0  0  0  0  0  0  0  0  0  0  0
    4.3716    4.5373   -0.2171 C   0  0  0  0  0  0  0  0  0  0  0  0
    4.0569    3.7357    2.1567 C   0  0  0  0  0  0  0  0  0  0  0  0
    4.2078    4.9485    1.2431 C   0  0  0  0  0  0  0  0  0  0  0  0
    2.0460    0.1449   -0.5398 C   0  0  0  0  0  0  0  0  0  0  0  0
    0.5884    1.8842   -0.2705 C   0  0  0  0  0  0  0  0  0  0  0  0
   -0.1386    0.7710   -0.6826 C   0  0  0  0  0  0  0  0  0  0  0  0
    3.2046   -0.7735   -0.5048 C   0  0  0  0  0  0  0  0  0  0  0  0
    0.4397   -1.5843   -1.3479 C   0  0  0  0  0  0  0  0  0  0  0  0
   -0.1076    3.0698    0.0363 C   0  0  0  0  0  0  0  0  0  0  0  0
   -1.5413    0.7801   -0.7676 C   0  0  0  0  0  0  0  0  0  0  0  0
    3.1034   -2.1377   -0.1136 C   0  0  0  0  0  0  0  0  0  0  0  0
    0.6488   -2.5268   -0.2077 C   0  0  0  0  0  0  0  0  0  0  0  0
   -2.2281    1.9475   -0.4094 C   0  0  0  0  0  0  0  0  0  0  0  0
    1.8512   -2.8004    0.3221 C   0  0  0  0  0  0  0  0  0  0  0  0
   -1.5097    3.0856   -0.0282 C   0  0  0  0  0  0  0  0  0  0  0  0
    4.4692   -0.2611   -0.8499 C   0  0  0  0  0  0  0  0  0  0  0  0
    4.2691   -2.9234   -0.0644 C   0  0  0  0  0  0  0  0  0  0  0  0
   -0.5803   -3.1629    0.3415 C   0  0  0  0  0  0  0  0  0  0  0  0
    5.6092   -1.0642   -0.8093 C   0  0  0  0  0  0  0  0  0  0  0  0
    5.5099   -2.3926   -0.4150 C   0  0  0  0  0  0  0  0  0  0  0  0
   -3.7182    1.9985   -0.3666 C   0  0  0  0  0  0  0  0  0  0  0  0
   -2.5391   -2.8606    1.8136 C   0  0  0  0  0  0  0  0  0  0  0  0
   -3.4799   -1.7978    1.2312 C   0  0  0  0  0  0  0  0  0  0  0  0
   -4.9162   -1.9579    1.7315 C   0  0  0  0  0  0  0  0  0  0  0  0
   -5.8096   -0.7866    1.3108 C   0  0  0  0  0  0  0  0  0  0  0  0
   -0.4976   -1.5270    2.2882 C   0  0  0  0  0  0  0  0  0  0  0  0
   -7.3661   -1.6818   -0.3955 C   0  0  0  0  0  0  0  0  0  0  0  0
    7.8594   -2.5669   -0.7388 C   0  0  0  0  0  0  0  0  0  0  0  0
    4.0361    1.8815    0.2239 H   0  0  0  0  0  0  0  0  0  0  0  0
    3.4265    3.3069   -1.7089 H   0  0  0  0  0  0  0  0  0  0  0  0
    2.3129    4.2265   -0.7148 H   0  0  0  0  0  0  0  0  0  0  0  0
    2.8856    1.9386    2.3476 H   0  0  0  0  0  0  0  0  0  0  0  0
    1.9697    3.3546    1.8672 H   0  0  0  0  0  0  0  0  0  0  0  0
    5.3271    4.0135   -0.3441 H   0  0  0  0  0  0  0  0  0  0  0  0
    4.4123    5.4312   -0.8497 H   0  0  0  0  0  0  0  0  0  0  0  0
    4.9947    3.1666    2.1666 H   0  0  0  0  0  0  0  0  0  0  0  0
    3.8765    4.0691    3.1850 H   0  0  0  0  0  0  0  0  0  0  0  0
    5.0736    5.5417    1.5583 H   0  0  0  0  0  0  0  0  0  0  0  0
    3.3253    5.5922    1.3435 H   0  0  0  0  0  0  0  0  0  0  0  0
   -0.5882   -1.6077   -1.7196 H   0  0  0  0  0  0  0  0  0  0  0  0
    1.0825   -1.8274   -2.2026 H   0  0  0  0  0  0  0  0  0  0  0  0
    0.4036    3.9698    0.3623 H   0  0  0  0  0  0  0  0  0  0  0  0
   -2.0576   -0.1305   -1.0422 H   0  0  0  0  0  0  0  0  0  0  0  0
    1.9429   -3.5210    1.1311 H   0  0  0  0  0  0  0  0  0  0  0  0
   -2.0232    4.0047    0.2453 H   0  0  0  0  0  0  0  0  0  0  0  0
    4.5905    0.7356   -1.2640 H   0  0  0  0  0  0  0  0  0  0  0  0
    4.2148   -3.9657    0.2468 H   0  0  0  0  0  0  0  0  0  0  0  0
    6.5364   -0.5927   -1.1171 H   0  0  0  0  0  0  0  0  0  0  0  0
   -2.8154   -3.8444    1.4183 H   0  0  0  0  0  0  0  0  0  0  0  0
   -2.6265   -2.9109    2.9048 H   0  0  0  0  0  0  0  0  0  0  0  0
   -3.4551   -1.8503    0.1364 H   0  0  0  0  0  0  0  0  0  0  0  0
   -3.1225   -0.7993    1.5070 H   0  0  0  0  0  0  0  0  0  0  0  0
   -5.3261   -2.9120    1.3823 H   0  0  0  0  0  0  0  0  0  0  0  0
   -4.9045   -1.9961    2.8278 H   0  0  0  0  0  0  0  0  0  0  0  0
   -3.8583    0.3031   -1.6495 H   0  0  0  0  0  0  0  0  0  0  0  0
   -5.3086    0.1588    1.5444 H   0  0  0  0  0  0  0  0  0  0  0  0
   -6.7380   -0.8016    1.8944 H   0  0  0  0  0  0  0  0  0  0  0  0
   -0.7015   -1.7235    3.3450 H   0  0  0  0  0  0  0  0  0  0  0  0
    0.5827   -1.4954    2.1562 H   0  0  0  0  0  0  0  0  0  0  0  0
   -0.9134   -0.5545    2.0152 H   0  0  0  0  0  0  0  0  0  0  0  0
   -7.3089   -2.6280    0.1501 H   0  0  0  0  0  0  0  0  0  0  0  0
   -8.2606   -1.1416   -0.0717 H   0  0  0  0  0  0  0  0  0  0  0  0
   -7.4465   -1.9239   -1.4589 H   0  0  0  0  0  0  0  0  0  0  0  0
    7.8545   -2.2513   -1.7876 H   0  0  0  0  0  0  0  0  0  0  0  0
    8.1250   -1.7491   -0.0603 H   0  0  0  0  0  0  0  0  0  0  0  0
    8.6376   -3.3306   -0.6386 H   0  0  0  0  0  0  0  0  0  0  0  0
  1  5  2  0  0  0  0
  1  6  2  0  0  0  0
  1  9  1  0  0  0  0
  1 10  1  0  0  0  0
  2 34  1  0  0  0  0
  2 42  1  0  0  0  0
  3 32  2  0  0  0  0
  4 35  2  0  0  0  0
  7 18  1  0  0  0  0
  7 20  1  0  0  0  0
  7 22  1  0  0  0  0
  8 32  1  0  0  0  0
  8 36  1  0  0  0  0
  8 40  1  0  0  0  0
  9 35  1  0  0  0  0
  9 69  1  0  0  0  0
 10 39  1  0  0  0  0
 10 41  1  0  0  0  0
 11 12  1  0  0  0  0
 11 13  1  0  0  0  0
 11 14  1  0  0  0  0
 11 43  1  0  0  0  0
 12 15  1  0  0  0  0
 12 44  1  0  0  0  0
 12 45  1  0  0  0  0
 13 16  1  0  0  0  0
 13 46  1  0  0  0  0
 13 47  1  0  0  0  0
 14 18  2  0  0  0  0
 14 19  1  0  0  0  0
 15 17  1  0  0  0  0
 15 48  1  0  0  0  0
 15 49  1  0  0  0  0
 16 17  1  0  0  0  0
 16 50  1  0  0  0  0
 16 51  1  0  0  0  0
 17 52  1  0  0  0  0
 17 53  1  0  0  0  0
 18 21  1  0  0  0  0
 19 20  2  0  0  0  0
 19 23  1  0  0  0  0
 20 24  1  0  0  0  0
 21 25  2  0  0  0  0
 21 30  1  0  0  0  0
 22 26  1  0  0  0  0
 22 54  1  0  0  0  0
 22 55  1  0  0  0  0
 23 29  2  0  0  0  0
 23 56  1  0  0  0  0
 24 27  2  0  0  0  0
 24 57  1  0  0  0  0
 25 28  1  0  0  0  0
 25 31  1  0  0  0  0
 26 28  2  0  0  0  0
 26 32  1  0  0  0  0
 27 29  1  0  0  0  0
 27 35  1  0  0  0  0
 28 58  1  0  0  0  0
 29 59  1  0  0  0  0
 30 33  2  0  0  0  0
 30 60  1  0  0  0  0
 31 34  2  0  0  0  0
 31 61  1  0  0  0  0
 33 34  1  0  0  0  0
 33 62  1  0  0  0  0
 36 37  1  0  0  0  0
 36 63  1  0  0  0  0
 36 64  1  0  0  0  0
 37 38  1  0  0  0  0
 37 65  1  0  0  0  0
 37 66  1  0  0  0  0
 38 39  1  0  0  0  0
 38 67  1  0  0  0  0
 38 68  1  0  0  0  0
 39 70  1  0  0  0  0
 39 71  1  0  0  0  0
 40 72  1  0  0  0  0
 40 73  1  0  0  0  0
 40 74  1  0  0  0  0
 41 75  1  0  0  0  0
 41 76  1  0  0  0  0
 41 77  1  0  0  0  0
 42 78  1  0  0  0  0
 42 79  1  0  0  0  0
 42 80  1  0  0  0  0
M  END
> <PUBCHEM_COMPOUND_CID>
44608614

> <PUBCHEM_CONFORMER_RMSD>
1

> <PUBCHEM_CONFORMER_DIVERSEORDER>
1
7
5
6
3
8
4
2

> <PUBCHEM_MMFF94_PARTIAL_CHARGES>
42
1 1.58
10 -0.85
11 0.18
14 -0.18
18 -0.2
2 -0.36
20 -0.15
21 0.05
22 0.39
23 -0.15
24 -0.15
25 0.03
26 -0.12
27 0.09
28 -0.18
29 -0.15
3 -0.57
30 -0.15
31 -0.15
32 0.62
33 -0.15
34 0.08
35 0.72
36 0.3
39 0.36
4 -0.57
40 0.3
41 0.36
42 0.28
5 -0.65
56 0.15
57 0.15
58 0.15
59 0.15
6 -0.65
60 0.15
61 0.15
62 0.15
69 0.42
7 0.05
8 -0.66
9 -0.79

> <PUBCHEM_EFFECTIVE_ROTOR_COUNT>
4.8

> <PUBCHEM_PHARMACOPHORE_FEATURES>
10
1 2 acceptor
1 3 acceptor
1 4 acceptor
1 7 cation
1 9 donor
5 7 14 18 19 20 rings
6 11 12 13 15 16 17 rings
6 19 20 23 24 27 29 rings
6 21 25 30 31 33 34 rings
7 7 18 21 22 25 26 28 rings

> <PUBCHEM_HEAVY_ATOM_COUNT>
42

> <PUBCHEM_ATOM_DEF_STEREO_COUNT>
0

> <PUBCHEM_ATOM_UDEF_STEREO_COUNT>
0

> <PUBCHEM_BOND_DEF_STEREO_COUNT>
0

> <PUBCHEM_BOND_UDEF_STEREO_COUNT>
0

> <PUBCHEM_ISOTOPIC_ATOM_COUNT>
0

> <PUBCHEM_COMPONENT_COUNT>
1

> <PUBCHEM_CACTVS_TAUTO_COUNT>
2

> <PUBCHEM_CONFORMER_ID>
02A8AC6600000001

> <PUBCHEM_MMFF94_ENERGY>
120.3542

> <PUBCHEM_FEATURE_SELFOVERLAP>
50.889

> <PUBCHEM_SHAPE_FINGERPRINT>
10032420 55 17899126127391639564
10169797 241 18269296666736254071
10290309 65 18051137187903497568
10439779 11 18191861236741128323
1100329 8 18411419471724547540
11578080 2 18127413577659504794
11607047 403 15690345011449347631
12107698 1 18341895169525197799
12422481 6 18044082686744269832
12522641 126 18261402173940296052
12597179 24 18264198287422194577
12608794 3 18194997121408597403
13383668 362 18270665580947041064
13402501 40 18261117344446251423
13811026 1 18335421257882528810
14040221 97 17897170328550980300
14068700 675 18058723590306466216
14068700 686 18335973230153438221
14394314 77 18051976914323978608
14725015 67 18334300842416931803
14955137 171 18129101117871228604
15064986 96 18341034308251330776
15219648 60 18189325780461709682
15351339 4 17895752872941515211
15927050 60 18198336467408294324
15968369 153 18341885316237146338
16114785 44 16906629245030390368
19611394 137 18337962199200513202
20028762 73 18200588090659328919
22311459 1 18341045203565378567
23559900 14 18261114084075554501
25223398 141 17531807939877612543
283562 15 17691689983790250300
3178227 256 18267596722980959944
3383291 50 18410008802169444850
392239 28 18340219496645579929
484989 97 18334023786824450846
5171179 24 18412265073412648906
6086070 43 18410295783314925578

> <PUBCHEM_SHAPE_MULTIPOLES>
818.92
16.36
6.34
1.59
11.63
3.43
-0.64
-4.49
3.14
-8.72
-1.72
0.99
0.07
3.99

> <PUBCHEM_SHAPE_SELFOVERLAP>
1758.316

> <PUBCHEM_SHAPE_VOLUME>
453.9

> <PUBCHEM_COORDINATE_TYPE>
2
5
10

$$$$
