
 OpenBabel09122221133D

 39 44  0  0  1  0  0  0  0  0999 V2000
    6.3100   -6.6070    0.3780 C   0  0  0  0  0  0  0  0  0  0  0  0
    6.1070   -5.7980   -0.7430 C   0  0  0  0  0  3  0  0  0  0  0  0
    7.1200   -4.9390   -1.1780 C   0  0  0  0  0  3  0  0  0  0  0  0
    8.3400   -4.8570   -0.4960 C   0  0  0  0  0  0  0  0  0  0  0  0
    8.5370   -5.6560    0.6260 C   0  0  0  0  0  3  0  0  0  0  0  0
    7.5300   -6.5260    1.0490 C   0  0  0  0  0  0  0  0  0  0  0  0
    7.7690   -7.2970    2.1210 F   0  0  0  0  0  0  0  0  0  0  0  0
    2.1940  -10.7240    1.7570 C   0  0  0  0  0  0  0  0  0  0  0  0
    1.9770   -9.9130    2.8830 C   0  0  0  0  0  3  0  0  0  0  0  0
    2.6910   -8.7270    3.1000 C   0  0  0  0  0  3  0  0  0  0  0  0
    3.6460   -8.3630    2.1430 C   0  0  0  0  0  0  0  0  0  0  0  0
    3.8910   -9.1430    1.0160 C   0  0  0  0  0  0  0  0  0  0  0  0
    3.1630  -10.3270    0.8160 C   0  0  0  0  0  3  0  0  0  0  0  0
    4.8800   -8.5890    0.2420 N   0  0  0  0  0  0  0  0  0  0  0  0
    5.2460   -7.4810    0.8540 C   0  0  0  0  0  0  0  0  0  0  0  0
    4.5170   -7.2980    2.0170 N   0  0  0  0  0  0  0  0  0  0  0  0
    4.6760   -6.1850    2.9500 C   0  0  0  0  0  3  0  0  0  0  0  0
    4.3110   -4.8240    2.3370 C   0  0  0  0  0  2  0  0  0  0  0  0
    4.5320   -3.6880    3.3360 C   0  0  0  0  0  2  0  0  0  0  0  0
    3.7960   -3.9390    4.6490 C   0  0  0  0  0  2  0  0  0  0  0  0
    4.1810   -5.2820    5.2630 C   0  0  0  0  0  2  0  0  0  0  0  0
    3.9560   -6.4330    4.2860 C   0  0  0  0  0  2  0  0  0  0  0  0
    0.6260  -12.3490    2.5090 O   0  0  0  0  0  1  0  0  0  0  0  0
    1.4020  -12.0010    1.5620 C   0  0  0  0  0  0  0  0  0  0  0  0
    1.5710  -12.6320    0.4720 O   0  0  0  0  0  0  0  0  0  0  0  0
    9.2050   -3.9420   -1.0190 O   0  0  0  0  0  0  0  0  0  0  0  0
   10.3530   -3.4280   -0.3140 C   0  0  1  0  0  3  0  0  0  0  0  0
   11.4740   -2.9280   -1.2150 C   0  0  0  0  0  0  0  0  0  0  0  0
   11.4550   -1.7040   -1.8930 C   0  0  0  0  0  3  0  0  0  0  0  0
   12.5250   -1.3360   -2.7060 C   0  0  0  0  0  3  0  0  0  0  0  0
   13.5900   -2.2100   -2.8300 C   0  0  0  0  0  3  0  0  0  0  0  0
   13.6480   -3.4050   -2.2120 N   0  0  0  0  0  0  0  0  0  0  0  0
   12.5940   -3.7360   -1.4290 C   0  0  0  0  0  3  0  0  0  0  0  0
   10.0190   -2.6340    0.9420 C   0  0  0  0  0  0  0  0  0  0  0  0
    9.2660   -1.4550    0.8400 C   0  0  0  0  0  3  0  0  0  0  0  0
    8.9470   -0.7240    1.9810 C   0  0  0  0  0  3  0  0  0  0  0  0
    9.3870   -1.1960    3.2030 C   0  0  0  0  0  3  0  0  0  0  0  0
   10.1090   -2.3260    3.3500 N   0  0  0  0  0  0  0  0  0  0  0  0
   10.4110   -3.0130    2.2240 C   0  0  0  0  0  3  0  0  0  0  0  0
  1 15  1  0  0  0  0
  1  6  1  0  0  0  0
  2  1  2  0  0  0  0
  3  2  1  0  0  0  0
  3  4  2  0  0  0  0
  4  5  1  0  0  0  0
  5  6  2  0  0  0  0
  6  7  1  0  0  0  0
  8  9  1  0  0  0  0
  9 10  2  0  0  0  0
 11 10  1  0  0  0  0
 12 11  2  0  0  0  0
 13 12  1  0  0  0  0
 13  8  2  0  0  0  0
 14 15  2  0  0  0  0
 14 12  1  0  0  0  0
 15 16  1  0  0  0  0
 16 11  1  0  0  0  0
 16 17  1  0  0  0  0
 17 22  1  0  0  0  0
 18 17  1  0  0  0  0
 18 19  1  0  0  0  0
 19 20  1  0  0  0  0
 20 21  1  0  0  0  0
 22 21  1  0  0  0  0
 24  8  1  0  0  0  0
 24 23  1  0  0  0  0
 25 24  2  0  0  0  0
 26  4  1  0  0  0  0
 27 26  1  6  0  0  0
 27 34  1  0  0  0  0
 28 27  1  0  0  0  0
 29 28  2  0  0  0  0
 30 29  1  0  0  0  0
 31 30  2  0  0  0  0
 31 32  1  0  0  0  0
 32 33  2  0  0  0  0
 33 28  1  0  0  0  0
 34 39  1  0  0  0  0
 35 34  2  0  0  0  0
 35 36  1  0  0  0  0
 36 37  2  0  0  0  0
 37 38  1  0  0  0  0
 39 38  2  0  0  0  0
M  END
>  <minimizedAffinity>
-10.4104519

$$$$

 OpenBabel09122221133D

 39 44  0  0  1  0  0  0  0  0999 V2000
    6.0980   -6.6930    0.7360 C   0  0  0  0  0  0  0  0  0  0  0  0
    7.3760   -6.7610    1.2970 C   0  0  0  0  0  3  0  0  0  0  0  0
    8.4140   -5.9880    0.7680 C   0  0  0  0  0  3  0  0  0  0  0  0
    8.2020   -5.1530   -0.3350 C   0  0  0  0  0  0  0  0  0  0  0  0
    6.9320   -5.0930   -0.8980 C   0  0  0  0  0  3  0  0  0  0  0  0
    5.8920   -5.8530   -0.3580 C   0  0  0  0  0  0  0  0  0  0  0  0
    4.6760   -5.7480   -0.9160 F   0  0  0  0  0  0  0  0  0  0  0  0
    1.8970  -10.6370    2.3420 C   0  0  0  0  0  0  0  0  0  0  0  0
    1.7320   -9.7860    3.4470 C   0  0  0  0  0  3  0  0  0  0  0  0
    2.4860   -8.6160    3.6090 C   0  0  0  0  0  3  0  0  0  0  0  0
    3.4270   -8.3110    2.6190 C   0  0  0  0  0  0  0  0  0  0  0  0
    3.6210   -9.1330    1.5110 C   0  0  0  0  0  0  0  0  0  0  0  0
    2.8540  -10.3000    1.3660 C   0  0  0  0  0  3  0  0  0  0  0  0
    4.6070   -8.6330    0.6970 N   0  0  0  0  0  0  0  0  0  0  0  0
    5.0210   -7.5190    1.2640 C   0  0  0  0  0  0  0  0  0  0  0  0
    4.3260   -7.2780    2.4380 N   0  0  0  0  0  0  0  0  0  0  0  0
    4.5410   -6.1410    3.3310 C   0  0  0  0  0  3  0  0  0  0  0  0
    4.1910   -4.7900    2.6880 C   0  0  0  0  0  2  0  0  0  0  0  0
    4.4710   -3.6310    3.6430 C   0  0  0  0  0  2  0  0  0  0  0  0
    3.7700   -3.8240    4.9850 C   0  0  0  0  0  2  0  0  0  0  0  0
    4.1400   -5.1560    5.6290 C   0  0  0  0  0  2  0  0  0  0  0  0
    3.8570   -6.3310    4.6950 C   0  0  0  0  0  2  0  0  0  0  0  0
    0.0350  -11.9890    2.9510 O   0  0  0  0  0  1  0  0  0  0  0  0
    1.0630  -11.8950    2.2080 C   0  0  0  0  0  0  0  0  0  0  0  0
    1.4510  -12.7650    1.3660 O   0  0  0  0  0  0  0  0  0  0  0  0
    9.3230   -4.5000   -0.7570 O   0  0  0  0  0  0  0  0  0  0  0  0
    9.6730   -3.1610   -0.3520 C   0  0  1  0  0  3  0  0  0  0  0  0
    9.6400   -2.9280    1.1520 C   0  0  0  0  0  0  0  0  0  0  0  0
    8.4870   -2.6070    1.8760 C   0  0  0  0  0  3  0  0  0  0  0  0
    8.5580   -2.4010    3.2530 C   0  0  0  0  0  3  0  0  0  0  0  0
    9.7890   -2.5110    3.8740 C   0  0  0  0  0  3  0  0  0  0  0  0
   10.9300   -2.8010    3.2180 N   0  0  0  0  0  0  0  0  0  0  0  0
   10.8300   -2.9960    1.8830 C   0  0  0  0  0  3  0  0  0  0  0  0
   10.7980   -2.5310   -1.1620 C   0  0  0  0  0  0  0  0  0  0  0  0
   10.7620   -1.1600   -1.4540 C   0  0  0  0  0  3  0  0  0  0  0  0
   11.7890   -0.5700   -2.1870 C   0  0  0  0  0  3  0  0  0  0  0  0
   12.8350   -1.3710   -2.6060 C   0  0  0  0  0  3  0  0  0  0  0  0
   12.9150   -2.6920   -2.3440 N   0  0  0  0  0  0  0  0  0  0  0  0
   11.8990   -3.2410   -1.6360 C   0  0  0  0  0  3  0  0  0  0  0  0
  1 15  1  0  0  0  0
  1  2  1  0  0  0  0
  3  2  2  0  0  0  0
  4  3  1  0  0  0  0
  5  6  1  0  0  0  0
  5  4  2  0  0  0  0
  6  1  2  0  0  0  0
  7  6  1  0  0  0  0
  8  9  1  0  0  0  0
  9 10  2  0  0  0  0
 11 10  1  0  0  0  0
 12 11  2  0  0  0  0
 13 12  1  0  0  0  0
 13  8  2  0  0  0  0
 14 15  2  0  0  0  0
 14 12  1  0  0  0  0
 15 16  1  0  0  0  0
 16 11  1  0  0  0  0
 16 17  1  0  0  0  0
 17 22  1  0  0  0  0
 18 17  1  0  0  0  0
 18 19  1  0  0  0  0
 19 20  1  0  0  0  0
 20 21  1  0  0  0  0
 22 21  1  0  0  0  0
 24  8  1  0  0  0  0
 24 23  1  0  0  0  0
 25 24  2  0  0  0  0
 26  4  1  0  0  0  0
 27 26  1  1  0  0  0
 27 28  1  0  0  0  0
 28 29  2  0  0  0  0
 28 33  1  0  0  0  0
 29 30  1  0  0  0  0
 30 31  2  0  0  0  0
 32 31  1  0  0  0  0
 33 32  2  0  0  0  0
 34 27  1  0  0  0  0
 35 34  1  0  0  0  0
 36 35  2  0  0  0  0
 37 38  2  0  0  0  0
 37 36  1  0  0  0  0
 38 39  1  0  0  0  0
 39 34  2  0  0  0  0
M  END
>  <minimizedAffinity>
-9.89851952

$$$$

 OpenBabel09122221133D

 39 44  0  0  1  0  0  0  0  0999 V2000
    9.3470   -2.4790    3.4800 C   0  0  0  0  0  0  0  0  0  0  0  0
    9.9810   -3.0460    4.5900 C   0  0  0  0  0  3  0  0  0  0  0  0
   10.5920   -2.2240    5.5410 C   0  0  0  0  0  3  0  0  0  0  0  0
   10.5980   -0.8310    5.3950 C   0  0  0  0  0  0  0  0  0  0  0  0
    9.9750   -0.2700    4.2850 C   0  0  0  0  0  3  0  0  0  0  0  0
    9.3500   -1.0910    3.3440 C   0  0  0  0  0  0  0  0  0  0  0  0
    8.7400   -0.5080    2.3010 F   0  0  0  0  0  0  0  0  0  0  0  0
    6.2180   -6.0700   -0.1400 C   0  0  0  0  0  0  0  0  0  0  0  0
    7.1660   -5.6800   -1.1000 C   0  0  0  0  0  3  0  0  0  0  0  0
    8.2170   -4.8030   -0.8010 C   0  0  0  0  0  3  0  0  0  0  0  0
    8.3000   -4.3160    0.5100 C   0  0  0  0  0  0  0  0  0  0  0  0
    7.3760   -4.6780    1.4870 C   0  0  0  0  0  0  0  0  0  0  0  0
    6.3310   -5.5600    1.1680 C   0  0  0  0  0  3  0  0  0  0  0  0
    7.6580   -4.0590    2.6790 N   0  0  0  0  0  0  0  0  0  0  0  0
    8.7360   -3.3330    2.4700 C   0  0  0  0  0  0  0  0  0  0  0  0
    9.1680   -3.4620    1.1600 N   0  0  0  0  0  0  0  0  0  0  0  0
   10.3230   -2.7820    0.5790 C   0  0  0  0  0  3  0  0  0  0  0  0
   11.4120   -3.7490    0.0880 C   0  0  0  0  0  2  0  0  0  0  0  0
   12.6150   -2.9920   -0.4730 C   0  0  0  0  0  2  0  0  0  0  0  0
   12.2030   -1.9990   -1.5560 C   0  0  0  0  0  2  0  0  0  0  0  0
   11.1390   -1.0270   -1.0540 C   0  0  0  0  0  2  0  0  0  0  0  0
    9.9210   -1.7630   -0.5000 C   0  0  0  0  0  2  0  0  0  0  0  0
    5.4060   -8.0480   -1.1860 O   0  0  0  0  0  0  0  0  0  0  0  0
    5.0940   -7.0180   -0.5070 C   0  0  0  0  0  0  0  0  0  0  0  0
    3.9240   -6.7160   -0.1140 O   0  0  0  0  0  1  0  0  0  0  0  0
   11.2710   -0.1760    6.3830 O   0  0  0  0  0  0  0  0  0  0  0  0
   11.4520    1.2550    6.4180 C   0  0  1  0  0  3  0  0  0  0  0  0
   10.2000    2.0410    6.7820 C   0  0  0  0  0  0  0  0  0  0  0  0
    9.4210    1.8000    7.9180 C   0  0  0  0  0  3  0  0  0  0  0  0
    8.2820    2.5660    8.1630 C   0  0  0  0  0  3  0  0  0  0  0  0
    7.9440    3.5530    7.2550 C   0  0  0  0  0  3  0  0  0  0  0  0
    8.6520    3.8120    6.1390 N   0  0  0  0  0  0  0  0  0  0  0  0
    9.7520    3.0520    5.9280 C   0  0  0  0  0  3  0  0  0  0  0  0
   12.7890    1.7080    6.9920 C   0  0  0  0  0  0  0  0  0  0  0  0
   13.3680    0.9950    8.0520 C   0  0  0  0  0  3  0  0  0  0  0  0
   14.5930    1.3940    8.5810 C   0  0  0  0  0  3  0  0  0  0  0  0
   15.2130    2.4980    8.0290 C   0  0  0  0  0  3  0  0  0  0  0  0
   14.6970    3.2100    7.0060 N   0  0  0  0  0  0  0  0  0  0  0  0
   13.5020    2.8060    6.5170 C   0  0  0  0  0  3  0  0  0  0  0  0
  1  2  1  0  0  0  0
  2  3  2  0  0  0  0
  4  3  1  0  0  0  0
  4 26  1  0  0  0  0
  5  4  2  0  0  0  0
  6  1  2  0  0  0  0
  6  5  1  0  0  0  0
  7  6  1  0  0  0  0
  8 13  1  0  0  0  0
  9 10  1  0  0  0  0
  9  8  2  0  0  0  0
 10 11  2  0  0  0  0
 11 16  1  0  0  0  0
 11 12  1  0  0  0  0
 12 14  1  0  0  0  0
 13 12  2  0  0  0  0
 15 14  2  0  0  0  0
 15  1  1  0  0  0  0
 16 15  1  0  0  0  0
 17 16  1  0  0  0  0
 18 17  1  0  0  0  0
 19 18  1  0  0  0  0
 20 21  1  0  0  0  0
 20 19  1  0  0  0  0
 21 22  1  0  0  0  0
 22 17  1  0  0  0  0
 23 24  2  0  0  0  0
 24  8  1  0  0  0  0
 24 25  1  0  0  0  0
 27 26  1  1  0  0  0
 27 28  1  0  0  0  0
 27 34  1  0  0  0  0
 28 29  1  0  0  0  0
 29 30  2  0  0  0  0
 31 30  1  0  0  0  0
 32 31  2  0  0  0  0
 33 32  1  0  0  0  0
 33 28  2  0  0  0  0
 34 35  1  0  0  0  0
 35 36  2  0  0  0  0
 37 36  1  0  0  0  0
 38 37  2  0  0  0  0
 39 34  2  0  0  0  0
 39 38  1  0  0  0  0
M  END
>  <minimizedAffinity>
-9.44748402

$$$$

 OpenBabel09122221133D

 39 44  0  0  1  0  0  0  0  0999 V2000
    5.9510   -7.1800    1.5030 C   0  0  0  0  0  0  0  0  0  0  0  0
    6.2940   -8.2160    2.3760 C   0  0  0  0  0  3  0  0  0  0  0  0
    5.4510   -9.3220    2.5130 C   0  0  0  0  0  3  0  0  0  0  0  0
    4.2480   -9.4070    1.8020 C   0  0  0  0  0  0  0  0  0  0  0  0
    3.9040   -8.3700    0.9400 C   0  0  0  0  0  3  0  0  0  0  0  0
    4.7550   -7.2740    0.7900 C   0  0  0  0  0  0  0  0  0  0  0  0
    4.3980   -6.3070   -0.0680 F   0  0  0  0  0  0  0  0  0  0  0  0
    9.7360   -2.7090    0.2880 C   0  0  0  0  0  0  0  0  0  0  0  0
    9.0830   -2.0660    1.3530 C   0  0  0  0  0  3  0  0  0  0  0  0
    8.0500   -2.6780    2.0750 C   0  0  0  0  0  3  0  0  0  0  0  0
    7.6780   -3.9750    1.7000 C   0  0  0  0  0  0  0  0  0  0  0  0
    8.3000   -4.6420    0.6470 C   0  0  0  0  0  0  0  0  0  0  0  0
    9.3340   -4.0130   -0.0630 C   0  0  0  0  0  3  0  0  0  0  0  0
    7.7490   -5.8850    0.4620 N   0  0  0  0  0  0  0  0  0  0  0  0
    6.8120   -6.0110    1.3790 C   0  0  0  0  0  0  0  0  0  0  0  0
    6.7340   -4.8710    2.1620 N   0  0  0  0  0  0  0  0  0  0  0  0
    5.7930   -4.6600    3.2590 C   0  0  0  0  0  3  0  0  0  0  0  0
    6.3610   -3.7800    4.3840 C   0  0  0  0  0  2  0  0  0  0  0  0
    5.3570   -3.6220    5.5250 C   0  0  0  0  0  2  0  0  0  0  0  0
    4.0090   -3.1110    5.0260 C   0  0  0  0  0  2  0  0  0  0  0  0
    3.4410   -4.0020    3.9260 C   0  0  0  0  0  2  0  0  0  0  0  0
    4.4230   -4.1640    2.7680 C   0  0  0  0  0  2  0  0  0  0  0  0
   11.9450   -2.6400   -0.5970 O   0  0  0  0  0  1  0  0  0  0  0  0
   10.8460   -2.0100   -0.4700 C   0  0  0  0  0  0  0  0  0  0  0  0
   10.6030   -0.8460   -0.9200 O   0  0  0  0  0  0  0  0  0  0  0  0
    3.5200  -10.5250    2.0790 O   0  0  0  0  0  0  0  0  0  0  0  0
    3.9930  -11.8690    1.8510 C   0  0  1  0  0  3  0  0  0  0  0  0
    4.0760  -12.7290    3.1040 C   0  0  0  0  0  0  0  0  0  0  0  0
    5.2710  -13.1910    3.6660 C   0  0  0  0  0  3  0  0  0  0  0  0
    5.2470  -13.9850    4.8110 C   0  0  0  0  0  3  0  0  0  0  0  0
    4.0210  -14.3080    5.3640 C   0  0  0  0  0  3  0  0  0  0  0  0
    2.8430  -13.9010    4.8520 N   0  0  0  0  0  0  0  0  0  0  0  0
    2.8980  -13.1320    3.7390 C   0  0  0  0  0  3  0  0  0  0  0  0
    3.4860  -12.5060    0.5640 C   0  0  0  0  0  0  0  0  0  0  0  0
    4.1210  -13.6480    0.0550 C   0  0  0  0  0  3  0  0  0  0  0  0
    3.6630  -14.2440   -1.1170 C   0  0  0  0  0  3  0  0  0  0  0  0
    2.5700  -13.6830   -1.7500 C   0  0  0  0  0  3  0  0  0  0  0  0
    1.9250  -12.5890   -1.2960 N   0  0  0  0  0  0  0  0  0  0  0  0
    2.3960  -12.0250   -0.1590 C   0  0  0  0  0  3  0  0  0  0  0  0
  1  2  1  0  0  0  0
  2  3  2  0  0  0  0
  4 26  1  0  0  0  0
  4  3  1  0  0  0  0
  5  4  2  0  0  0  0
  6  5  1  0  0  0  0
  6  1  2  0  0  0  0
  7  6  1  0  0  0  0
  8  9  1  0  0  0  0
  9 10  2  0  0  0  0
 11 10  1  0  0  0  0
 11 16  1  0  0  0  0
 12 11  2  0  0  0  0
 13  8  2  0  0  0  0
 13 12  1  0  0  0  0
 14 12  1  0  0  0  0
 14 15  2  0  0  0  0
 15  1  1  0  0  0  0
 15 16  1  0  0  0  0
 16 17  1  0  0  0  0
 17 18  1  0  0  0  0
 18 19  1  0  0  0  0
 20 19  1  0  0  0  0
 21 20  1  0  0  0  0
 22 17  1  0  0  0  0
 22 21  1  0  0  0  0
 23 24  1  0  0  0  0
 24  8  1  0  0  0  0
 25 24  2  0  0  0  0
 27 26  1  1  0  0  0
 27 28  1  0  0  0  0
 28 29  2  0  0  0  0
 28 33  1  0  0  0  0
 29 30  1  0  0  0  0
 30 31  2  0  0  0  0
 32 31  1  0  0  0  0
 33 32  2  0  0  0  0
 34 27  1  0  0  0  0
 35 34  1  0  0  0  0
 36 35  2  0  0  0  0
 37 38  2  0  0  0  0
 37 36  1  0  0  0  0
 38 39  1  0  0  0  0
 39 34  2  0  0  0  0
M  END
>  <minimizedAffinity>
-9.22617722

$$$$

 OpenBabel09122221133D

 39 44  0  0  1  0  0  0  0  0999 V2000
    4.1990   -8.7920    2.8680 C   0  0  0  0  0  0  0  0  0  0  0  0
    5.0290   -9.6000    3.6510 C   0  0  0  0  0  3  0  0  0  0  0  0
    5.2070  -10.9460    3.3210 C   0  0  0  0  0  3  0  0  0  0  0  0
    4.5500  -11.5140    2.2230 C   0  0  0  0  0  0  0  0  0  0  0  0
    3.7160  -10.7110    1.4510 C   0  0  0  0  0  3  0  0  0  0  0  0
    3.5520   -9.3610    1.7710 C   0  0  0  0  0  0  0  0  0  0  0  0
    2.7590   -8.6170    0.9870 F   0  0  0  0  0  0  0  0  0  0  0  0
    2.9450   -3.3450    5.0020 C   0  0  0  0  0  0  0  0  0  0  0  0
    3.8280   -2.9120    3.9980 C   0  0  0  0  0  3  0  0  0  0  0  0
    4.4570   -3.8050    3.1200 C   0  0  0  0  0  3  0  0  0  0  0  0
    4.1760   -5.1680    3.2720 C   0  0  0  0  0  0  0  0  0  0  0  0
    3.3100   -5.6340    4.2580 C   0  0  0  0  0  0  0  0  0  0  0  0
    2.6880   -4.7240    5.1270 C   0  0  0  0  0  3  0  0  0  0  0  0
    3.2130   -7.0030    4.2170 N   0  0  0  0  0  0  0  0  0  0  0  0
    3.9860   -7.3960    3.2260 C   0  0  0  0  0  0  0  0  0  0  0  0
    4.5920   -6.3100    2.6150 N   0  0  0  0  0  0  0  0  0  0  0  0
    5.5280   -6.3810    1.4950 C   0  0  0  0  0  3  0  0  0  0  0  0
    4.8640   -6.1170    0.1340 C   0  0  0  0  0  2  0  0  0  0  0  0
    5.8720   -6.2430   -1.0080 C   0  0  0  0  0  2  0  0  0  0  0  0
    7.0920   -5.3550   -0.7850 C   0  0  0  0  0  2  0  0  0  0  0  0
    7.7590   -5.6390    0.5570 C   0  0  0  0  0  2  0  0  0  0  0  0
    6.7730   -5.5060    1.7150 C   0  0  0  0  0  2  0  0  0  0  0  0
    2.5920   -2.4210    7.1670 O   0  0  0  0  0  1  0  0  0  0  0  0
    2.2890   -2.3470    5.9340 C   0  0  0  0  0  0  0  0  0  0  0  0
    1.4820   -1.5110    5.4180 O   0  0  0  0  0  0  0  0  0  0  0  0
    4.7930  -12.8450    2.0620 O   0  0  0  0  0  0  0  0  0  0  0  0
    3.7910  -13.8700    2.2230 C   0  0  1  0  0  3  0  0  0  0  0  0
    2.8230  -13.6300    3.3730 C   0  0  0  0  0  0  0  0  0  0  0  0
    3.1210  -13.8710    4.7180 C   0  0  0  0  0  3  0  0  0  0  0  0
    2.1640  -13.6300    5.7030 C   0  0  0  0  0  3  0  0  0  0  0  0
    0.9210  -13.1630    5.3140 C   0  0  0  0  0  3  0  0  0  0  0  0
    0.5810  -12.9310    4.0320 N   0  0  0  0  0  0  0  0  0  0  0  0
    1.5300  -13.1740    3.0980 C   0  0  0  0  0  3  0  0  0  0  0  0
    3.2430  -14.4280    0.9150 C   0  0  0  0  0  0  0  0  0  0  0  0
    3.5410  -13.7850   -0.2950 C   0  0  0  0  0  3  0  0  0  0  0  0
    3.0530  -14.2900   -1.4970 C   0  0  0  0  0  3  0  0  0  0  0  0
    2.2800  -15.4350   -1.4590 C   0  0  0  0  0  3  0  0  0  0  0  0
    1.9730  -16.0900   -0.3200 N   0  0  0  0  0  0  0  0  0  0  0  0
    2.4540  -15.5730    0.8350 C   0  0  0  0  0  3  0  0  0  0  0  0
  1 15  1  0  0  0  0
  1  2  1  0  0  0  0
  3  2  2  0  0  0  0
  4  3  1  0  0  0  0
  5  6  1  0  0  0  0
  5  4  2  0  0  0  0
  6  1  2  0  0  0  0
  7  6  1  0  0  0  0
  8 13  1  0  0  0  0
  8 24  1  0  0  0  0
  9  8  2  0  0  0  0
 10 11  2  0  0  0  0
 10  9  1  0  0  0  0
 11 12  1  0  0  0  0
 12 13  2  0  0  0  0
 14 12  1  0  0  0  0
 15 14  2  0  0  0  0
 16 15  1  0  0  0  0
 16 11  1  0  0  0  0
 17 22  1  0  0  0  0
 17 16  1  0  0  0  0
 18 17  1  0  0  0  0
 19 20  1  0  0  0  0
 19 18  1  0  0  0  0
 20 21  1  0  0  0  0
 21 22  1  0  0  0  0
 24 23  1  0  0  0  0
 25 24  2  0  0  0  0
 26  4  1  0  0  0  0
 27 26  1  6  0  0  0
 27 28  1  0  0  0  0
 28 29  1  0  0  0  0
 29 30  2  0  0  0  0
 31 30  1  0  0  0  0
 32 31  2  0  0  0  0
 33 28  2  0  0  0  0
 33 32  1  0  0  0  0
 34 27  1  0  0  0  0
 35 34  2  0  0  0  0
 36 37  2  0  0  0  0
 36 35  1  0  0  0  0
 37 38  1  0  0  0  0
 38 39  2  0  0  0  0
 39 34  1  0  0  0  0
M  END
>  <minimizedAffinity>
-9.22406483

$$$$

 OpenBabel09122221133D

 39 44  0  0  1  0  0  0  0  0999 V2000
    5.3020   -7.5390    1.8690 C   0  0  0  0  0  0  0  0  0  0  0  0
    5.4700   -8.3870    2.9670 C   0  0  0  0  0  3  0  0  0  0  0  0
    4.5460   -9.4060    3.2110 C   0  0  0  0  0  3  0  0  0  0  0  0
    3.4330   -9.5860    2.3810 C   0  0  0  0  0  0  0  0  0  0  0  0
    3.2620   -8.7350    1.2940 C   0  0  0  0  0  3  0  0  0  0  0  0
    4.1950   -7.7270    1.0420 C   0  0  0  0  0  0  0  0  0  0  0  0
    4.0060   -6.9440   -0.0300 F   0  0  0  0  0  0  0  0  0  0  0  0
    9.3850   -3.4980    0.2000 C   0  0  0  0  0  0  0  0  0  0  0  0
    8.8120   -2.7180    1.2180 C   0  0  0  0  0  3  0  0  0  0  0  0
    7.7550   -3.1830    2.0110 C   0  0  0  0  0  3  0  0  0  0  0  0
    7.2740   -4.4740    1.7560 C   0  0  0  0  0  0  0  0  0  0  0  0
    7.8150   -5.2740    0.7530 C   0  0  0  0  0  0  0  0  0  0  0  0
    8.8760   -4.7900   -0.0290 C   0  0  0  0  0  3  0  0  0  0  0  0
    7.1660   -6.4810    0.6870 N   0  0  0  0  0  0  0  0  0  0  0  0
    6.2460   -6.4550    1.6280 C   0  0  0  0  0  0  0  0  0  0  0  0
    6.2770   -5.2510    2.3120 N   0  0  0  0  0  0  0  0  0  0  0  0
    5.3830   -4.8740    3.4050 C   0  0  0  0  0  3  0  0  0  0  0  0
    6.0640   -4.0000    4.4700 C   0  0  0  0  0  2  0  0  0  0  0  0
    5.1040   -3.6670    5.6110 C   0  0  0  0  0  2  0  0  0  0  0  0
    3.8120   -3.0390    5.0970 C   0  0  0  0  0  2  0  0  0  0  0  0
    3.1300   -3.9240    4.0580 C   0  0  0  0  0  2  0  0  0  0  0  0
    4.0680   -4.2590    2.9010 C   0  0  0  0  0  2  0  0  0  0  0  0
   11.1390   -3.7810   -1.3850 O   0  0  0  0  0  0  0  0  0  0  0  0
   10.5260   -2.9540   -0.6370 C   0  0  0  0  0  0  0  0  0  0  0  0
   10.7900   -1.7160   -0.5290 O   0  0  0  0  0  1  0  0  0  0  0  0
    2.6050  -10.5930    2.7790 O   0  0  0  0  0  0  0  0  0  0  0  0
    2.8690  -11.9910    2.5410 C   0  0  1  0  0  3  0  0  0  0  0  0
    2.9270  -12.3820    1.0710 C   0  0  0  0  0  0  0  0  0  0  0  0
    4.1040  -12.6920    0.3820 C   0  0  0  0  0  3  0  0  0  0  0  0
    4.0580  -13.0280   -0.9690 C   0  0  0  0  0  3  0  0  0  0  0  0
    2.8300  -13.0350   -1.6060 C   0  0  0  0  0  3  0  0  0  0  0  0
    1.6710  -12.7280   -0.9910 N   0  0  0  0  0  0  0  0  0  0  0  0
    1.7470  -12.4050    0.3210 C   0  0  0  0  0  3  0  0  0  0  0  0
    3.8770  -12.6140    3.5000 C   0  0  0  0  0  0  0  0  0  0  0  0
    3.5310  -12.8060    4.8450 C   0  0  0  0  0  3  0  0  0  0  0  0
    4.4400  -13.3810    5.7290 C   0  0  0  0  0  3  0  0  0  0  0  0
    5.6770  -13.7560    5.2400 C   0  0  0  0  0  3  0  0  0  0  0  0
    6.0520  -13.5960    3.9550 N   0  0  0  0  0  0  0  0  0  0  0  0
    5.1510  -13.0270    3.1180 C   0  0  0  0  0  3  0  0  0  0  0  0
  1  2  1  0  0  0  0
  2  3  2  0  0  0  0
  4 26  1  0  0  0  0
  4  3  1  0  0  0  0
  5  4  2  0  0  0  0
  6  5  1  0  0  0  0
  6  1  2  0  0  0  0
  7  6  1  0  0  0  0
  8  9  1  0  0  0  0
  9 10  2  0  0  0  0
 11 10  1  0  0  0  0
 11 16  1  0  0  0  0
 12 11  2  0  0  0  0
 13  8  2  0  0  0  0
 13 12  1  0  0  0  0
 14 12  1  0  0  0  0
 14 15  2  0  0  0  0
 15  1  1  0  0  0  0
 15 16  1  0  0  0  0
 16 17  1  0  0  0  0
 17 18  1  0  0  0  0
 18 19  1  0  0  0  0
 20 19  1  0  0  0  0
 21 20  1  0  0  0  0
 22 17  1  0  0  0  0
 22 21  1  0  0  0  0
 23 24  2  0  0  0  0
 24 25  1  0  0  0  0
 24  8  1  0  0  0  0
 27 26  1  6  0  0  0
 27 34  1  0  0  0  0
 28 27  1  0  0  0  0
 29 28  1  0  0  0  0
 30 29  2  0  0  0  0
 31 32  2  0  0  0  0
 31 30  1  0  0  0  0
 32 33  1  0  0  0  0
 33 28  2  0  0  0  0
 34 35  1  0  0  0  0
 35 36  2  0  0  0  0
 37 36  1  0  0  0  0
 38 37  2  0  0  0  0
 39 34  2  0  0  0  0
 39 38  1  0  0  0  0
M  END
>  <minimizedAffinity>
-9.06611824

$$$$

 OpenBabel09122221133D

 39 44  0  0  1  0  0  0  0  0999 V2000
    9.3290   -2.4530    3.4550 C   0  0  0  0  0  0  0  0  0  0  0  0
   10.0000   -3.0100    4.5480 C   0  0  0  0  0  3  0  0  0  0  0  0
   10.6100   -2.1790    5.4910 C   0  0  0  0  0  3  0  0  0  0  0  0
   10.5790   -0.7860    5.3530 C   0  0  0  0  0  0  0  0  0  0  0  0
    9.9190   -0.2330    4.2600 C   0  0  0  0  0  3  0  0  0  0  0  0
    9.2950   -1.0650    3.3280 C   0  0  0  0  0  0  0  0  0  0  0  0
    8.6490   -0.4920    2.3010 F   0  0  0  0  0  0  0  0  0  0  0  0
    6.2000   -6.0790   -0.1300 C   0  0  0  0  0  0  0  0  0  0  0  0
    7.1460   -5.6960   -1.0950 C   0  0  0  0  0  3  0  0  0  0  0  0
    8.1960   -4.8150   -0.8040 C   0  0  0  0  0  3  0  0  0  0  0  0
    8.2800   -4.3170    0.5020 C   0  0  0  0  0  0  0  0  0  0  0  0
    7.3580   -4.6720    1.4840 C   0  0  0  0  0  0  0  0  0  0  0  0
    6.3140   -5.5570    1.1730 C   0  0  0  0  0  3  0  0  0  0  0  0
    7.6400   -4.0420    2.6700 N   0  0  0  0  0  0  0  0  0  0  0  0
    8.7170   -3.3170    2.4530 C   0  0  0  0  0  0  0  0  0  0  0  0
    9.1480   -3.4560    1.1440 N   0  0  0  0  0  0  0  0  0  0  0  0
   10.3010   -2.7790    0.5550 C   0  0  0  0  0  3  0  0  0  0  0  0
   11.3690   -3.7510    0.0260 C   0  0  0  0  0  2  0  0  0  0  0  0
   12.5710   -2.9980   -0.5410 C   0  0  0  0  0  2  0  0  0  0  0  0
   12.1530   -1.9790   -1.5970 C   0  0  0  0  0  2  0  0  0  0  0  0
   11.1110   -1.0040   -1.0570 C   0  0  0  0  0  2  0  0  0  0  0  0
    9.8930   -1.7340   -0.4960 C   0  0  0  0  0  2  0  0  0  0  0  0
    5.3820   -8.0470   -1.1910 O   0  0  0  0  0  0  0  0  0  0  0  0
    5.0770   -7.0320   -0.4880 C   0  0  0  0  0  0  0  0  0  0  0  0
    3.9130   -6.7470   -0.0640 O   0  0  0  0  0  1  0  0  0  0  0  0
   11.2560   -0.1190    6.3300 O   0  0  0  0  0  0  0  0  0  0  0  0
   10.6160    0.5780    7.4190 C   0  0  1  0  0  3  0  0  0  0  0  0
   10.5380    2.0880    7.2420 C   0  0  0  0  0  0  0  0  0  0  0  0
   10.1700    2.7250    6.0520 C   0  0  0  0  0  3  0  0  0  0  0  0
   10.1380    4.1160    5.9830 C   0  0  0  0  0  3  0  0  0  0  0  0
   10.4870    4.8410    7.1080 C   0  0  0  0  0  3  0  0  0  0  0  0
   10.8640    4.2750    8.2710 N   0  0  0  0  0  0  0  0  0  0  0  0
   10.8860    2.9220    8.3080 C   0  0  0  0  0  3  0  0  0  0  0  0
    9.4160   -0.1480    8.0140 C   0  0  0  0  0  0  0  0  0  0  0  0
    8.1190    0.3030    7.7320 C   0  0  0  0  0  3  0  0  0  0  0  0
    7.0140   -0.3560    8.2630 C   0  0  0  0  0  3  0  0  0  0  0  0
    7.2360   -1.4610    9.0630 C   0  0  0  0  0  3  0  0  0  0  0  0
    8.4640   -1.9340    9.3580 N   0  0  0  0  0  0  0  0  0  0  0  0
    9.5210   -1.2700    8.8340 C   0  0  0  0  0  3  0  0  0  0  0  0
  1  2  1  0  0  0  0
  2  3  2  0  0  0  0
  4  3  1  0  0  0  0
  4 26  1  0  0  0  0
  5  4  2  0  0  0  0
  6  1  2  0  0  0  0
  6  5  1  0  0  0  0
  7  6  1  0  0  0  0
  8 13  1  0  0  0  0
  9 10  1  0  0  0  0
  9  8  2  0  0  0  0
 10 11  2  0  0  0  0
 11 16  1  0  0  0  0
 11 12  1  0  0  0  0
 12 14  1  0  0  0  0
 13 12  2  0  0  0  0
 15 14  2  0  0  0  0
 15  1  1  0  0  0  0
 16 15  1  0  0  0  0
 17 16  1  0  0  0  0
 18 17  1  0  0  0  0
 19 18  1  0  0  0  0
 20 21  1  0  0  0  0
 20 19  1  0  0  0  0
 21 22  1  0  0  0  0
 22 17  1  0  0  0  0
 23 24  2  0  0  0  0
 24  8  1  0  0  0  0
 24 25  1  0  0  0  0
 27 26  1  6  0  0  0
 27 34  1  0  0  0  0
 28 27  1  0  0  0  0
 28 33  1  0  0  0  0
 29 28  2  0  0  0  0
 30 29  1  0  0  0  0
 30 31  2  0  0  0  0
 31 32  1  0  0  0  0
 32 33  2  0  0  0  0
 34 39  1  0  0  0  0
 35 34  2  0  0  0  0
 35 36  1  0  0  0  0
 36 37  2  0  0  0  0
 37 38  1  0  0  0  0
 39 38  2  0  0  0  0
M  END
>  <minimizedAffinity>
-8.91872883

$$$$

 OpenBabel09122221133D

 39 44  0  0  1  0  0  0  0  0999 V2000
    5.2880   -7.2850    1.3050 C   0  0  0  0  0  0  0  0  0  0  0  0
    4.2020   -7.2510    0.4250 C   0  0  0  0  0  3  0  0  0  0  0  0
    3.2320   -8.2550    0.4730 C   0  0  0  0  0  3  0  0  0  0  0  0
    3.3340   -9.3160    1.3810 C   0  0  0  0  0  0  0  0  0  0  0  0
    4.4200   -9.3540    2.2500 C   0  0  0  0  0  3  0  0  0  0  0  0
    5.3800   -8.3400    2.2120 C   0  0  0  0  0  0  0  0  0  0  0  0
    6.3990   -8.4020    3.0830 F   0  0  0  0  0  0  0  0  0  0  0  0
    9.7170   -3.3900    0.3060 C   0  0  0  0  0  0  0  0  0  0  0  0
    9.1720   -2.7150    1.4110 C   0  0  0  0  0  3  0  0  0  0  0  0
    8.0580   -3.2000    2.1080 C   0  0  0  0  0  3  0  0  0  0  0  0
    7.4890   -4.4010    1.6640 C   0  0  0  0  0  0  0  0  0  0  0  0
    8.0000   -5.0950    0.5700 C   0  0  0  0  0  0  0  0  0  0  0  0
    9.1190   -4.5940   -0.1130 C   0  0  0  0  0  3  0  0  0  0  0  0
    7.2640   -6.2270    0.3220 N   0  0  0  0  0  0  0  0  0  0  0  0
    6.3180   -6.2580    1.2380 C   0  0  0  0  0  0  0  0  0  0  0  0
    6.4180   -5.1650    2.0840 N   0  0  0  0  0  0  0  0  0  0  0  0
    5.5210   -4.8730    3.2000 C   0  0  0  0  0  3  0  0  0  0  0  0
    6.1700   -4.0010    4.2870 C   0  0  0  0  0  2  0  0  0  0  0  0
    5.2090   -3.7580    5.4500 C   0  0  0  0  0  2  0  0  0  0  0  0
    3.8790   -3.1810    4.9730 C   0  0  0  0  0  2  0  0  0  0  0  0
    3.2300   -4.0650    3.9110 C   0  0  0  0  0  2  0  0  0  0  0  0
    4.1690   -4.3110    2.7330 C   0  0  0  0  0  2  0  0  0  0  0  0
   12.0650   -3.0680    0.0830 O   0  0  0  0  0  1  0  0  0  0  0  0
   10.9220   -2.8290   -0.4220 C   0  0  0  0  0  0  0  0  0  0  0  0
   10.7050   -2.1590   -1.4800 O   0  0  0  0  0  0  0  0  0  0  0  0
    2.3320  -10.2340    1.2720 O   0  0  0  0  0  0  0  0  0  0  0  0
    2.4700  -11.6210    1.6460 C   0  0  1  0  0  3  0  0  0  0  0  0
    1.7880  -11.9920    2.9560 C   0  0  0  0  0  0  0  0  0  0  0  0
    2.3960  -12.7220    3.9820 C   0  0  0  0  0  3  0  0  0  0  0  0
    1.6860  -13.0240    5.1430 C   0  0  0  0  0  3  0  0  0  0  0  0
    0.3750  -12.5950    5.2450 C   0  0  0  0  0  3  0  0  0  0  0  0
   -0.2590  -11.9030    4.2780 N   0  0  0  0  0  0  0  0  0  0  0  0
    0.4550  -11.6250    3.1620 C   0  0  0  0  0  3  0  0  0  0  0  0
    2.3900  -12.5990    0.4810 C   0  0  0  0  0  0  0  0  0  0  0  0
    2.3750  -13.9790    0.7310 C   0  0  0  0  0  3  0  0  0  0  0  0
    2.2940  -14.8830   -0.3250 C   0  0  0  0  0  3  0  0  0  0  0  0
    2.2240  -14.3810   -1.6100 C   0  0  0  0  0  3  0  0  0  0  0  0
    2.2300  -13.0630   -1.8980 N   0  0  0  0  0  0  0  0  0  0  0  0
    2.3180  -12.2070   -0.8540 C   0  0  0  0  0  3  0  0  0  0  0  0
  1  6  1  0  0  0  0
  2  3  1  0  0  0  0
  2  1  2  0  0  0  0
  3  4  2  0  0  0  0
  4  5  1  0  0  0  0
  6  5  2  0  0  0  0
  6  7  1  0  0  0  0
  8  9  1  0  0  0  0
  9 10  2  0  0  0  0
 11 16  1  0  0  0  0
 11 10  1  0  0  0  0
 12 11  2  0  0  0  0
 13  8  2  0  0  0  0
 13 12  1  0  0  0  0
 14 12  1  0  0  0  0
 14 15  2  0  0  0  0
 15  1  1  0  0  0  0
 15 16  1  0  0  0  0
 16 17  1  0  0  0  0
 17 18  1  0  0  0  0
 18 19  1  0  0  0  0
 20 19  1  0  0  0  0
 21 20  1  0  0  0  0
 22 17  1  0  0  0  0
 22 21  1  0  0  0  0
 24 23  1  0  0  0  0
 24  8  1  0  0  0  0
 25 24  2  0  0  0  0
 26  4  1  0  0  0  0
 27 26  1  6  0  0  0
 27 28  1  0  0  0  0
 28 33  2  0  0  0  0
 28 29  1  0  0  0  0
 29 30  2  0  0  0  0
 30 31  1  0  0  0  0
 32 31  2  0  0  0  0
 33 32  1  0  0  0  0
 34 35  1  0  0  0  0
 34 27  1  0  0  0  0
 36 35  2  0  0  0  0
 37 36  1  0  0  0  0
 38 37  2  0  0  0  0
 38 39  1  0  0  0  0
 39 34  2  0  0  0  0
M  END
>  <minimizedAffinity>
-8.81283283

$$$$

 OpenBabel09122221133D

 39 44  0  0  1  0  0  0  0  0999 V2000
    9.4060   -1.8920    3.2810 C   0  0  0  0  0  0  0  0  0  0  0  0
    9.3300   -0.5380    2.9410 C   0  0  0  0  0  3  0  0  0  0  0  0
    9.8550    0.4290    3.8030 C   0  0  0  0  0  3  0  0  0  0  0  0
   10.4430    0.0690    5.0210 C   0  0  0  0  0  0  0  0  0  0  0  0
   10.5080   -1.2780    5.3630 C   0  0  0  0  0  3  0  0  0  0  0  0
   10.0000   -2.2450    4.4930 C   0  0  0  0  0  0  0  0  0  0  0  0
   10.1040   -3.5340    4.8490 F   0  0  0  0  0  0  0  0  0  0  0  0
    6.4340   -6.0690    0.1990 C   0  0  0  0  0  0  0  0  0  0  0  0
    7.3770   -5.7880   -0.8040 C   0  0  0  0  0  3  0  0  0  0  0  0
    8.3950   -4.8410   -0.6280 C   0  0  0  0  0  3  0  0  0  0  0  0
    8.4490   -4.1700    0.6000 C   0  0  0  0  0  0  0  0  0  0  0  0
    7.5290   -4.4200    1.6150 C   0  0  0  0  0  0  0  0  0  0  0  0
    6.5180   -5.3740    1.4200 C   0  0  0  0  0  3  0  0  0  0  0  0
    7.7780   -3.6280    2.7070 N   0  0  0  0  0  0  0  0  0  0  0  0
    8.8330   -2.9020    2.4010 C   0  0  0  0  0  0  0  0  0  0  0  0
    9.2820   -3.2010    1.1250 N   0  0  0  0  0  0  0  0  0  0  0  0
   10.4190   -2.5710    0.4570 C   0  0  0  0  0  3  0  0  0  0  0  0
   11.4820   -3.5790   -0.0090 C   0  0  0  0  0  2  0  0  0  0  0  0
   12.6680   -2.8710   -0.6630 C   0  0  0  0  0  2  0  0  0  0  0  0
   12.2220   -1.9480   -1.7920 C   0  0  0  0  0  2  0  0  0  0  0  0
   11.1840   -0.9360   -1.3170 C   0  0  0  0  0  2  0  0  0  0  0  0
    9.9830   -1.6220   -0.6710 C   0  0  0  0  0  2  0  0  0  0  0  0
    5.4230   -7.7880   -1.1010 O   0  0  0  0  0  0  0  0  0  0  0  0
    5.3470   -7.0990   -0.0350 C   0  0  0  0  0  0  0  0  0  0  0  0
    4.4380   -7.1970    0.8480 O   0  0  0  0  0  1  0  0  0  0  0  0
   10.8650    1.1300    5.7650 O   0  0  0  0  0  0  0  0  0  0  0  0
   11.9560    1.9940    5.3860 C   0  0  1  0  0  3  0  0  0  0  0  0
   11.5410    3.2160    4.5780 C   0  0  0  0  0  0  0  0  0  0  0  0
   11.9790    3.4880    3.2780 C   0  0  0  0  0  3  0  0  0  0  0  0
   11.5520    4.6410    2.6210 C   0  0  0  0  0  3  0  0  0  0  0  0
   10.7020    5.5030    3.2880 C   0  0  0  0  0  3  0  0  0  0  0  0
   10.2650    5.2940    4.5450 N   0  0  0  0  0  0  0  0  0  0  0  0
   10.6970    4.1670    5.1580 C   0  0  0  0  0  3  0  0  0  0  0  0
   13.0320    2.1580    6.4520 C   0  0  0  0  0  0  0  0  0  0  0  0
   12.9520    1.4180    7.6410 C   0  0  0  0  0  3  0  0  0  0  0  0
   13.9330    1.5530    8.6200 C   0  0  0  0  0  3  0  0  0  0  0  0
   14.9780    2.4240    8.3800 C   0  0  0  0  0  3  0  0  0  0  0  0
   15.1000    3.1520    7.2510 N   0  0  0  0  0  0  0  0  0  0  0  0
   14.1280    3.0070    6.3190 C   0  0  0  0  0  3  0  0  0  0  0  0
  1  6  1  0  0  0  0
  2  1  2  0  0  0  0
  2  3  1  0  0  0  0
  3  4  2  0  0  0  0
  4  5  1  0  0  0  0
  4 26  1  0  0  0  0
  6  7  1  0  0  0  0
  6  5  2  0  0  0  0
  8 13  1  0  0  0  0
  9 10  1  0  0  0  0
  9  8  2  0  0  0  0
 10 11  2  0  0  0  0
 11 16  1  0  0  0  0
 11 12  1  0  0  0  0
 12 14  1  0  0  0  0
 13 12  2  0  0  0  0
 15 14  2  0  0  0  0
 15  1  1  0  0  0  0
 16 15  1  0  0  0  0
 17 16  1  0  0  0  0
 18 17  1  0  0  0  0
 19 18  1  0  0  0  0
 20 21  1  0  0  0  0
 20 19  1  0  0  0  0
 21 22  1  0  0  0  0
 22 17  1  0  0  0  0
 23 24  2  0  0  0  0
 24  8  1  0  0  0  0
 24 25  1  0  0  0  0
 27 26  1  1  0  0  0
 27 34  1  0  0  0  0
 28 33  1  0  0  0  0
 28 27  1  0  0  0  0
 29 28  2  0  0  0  0
 30 29  1  0  0  0  0
 30 31  2  0  0  0  0
 31 32  1  0  0  0  0
 32 33  2  0  0  0  0
 34 35  1  0  0  0  0
 35 36  2  0  0  0  0
 37 36  1  0  0  0  0
 38 37  2  0  0  0  0
 39 34  2  0  0  0  0
 39 38  1  0  0  0  0
M  END
>  <minimizedAffinity>
-8.72574711

$$$$

 OpenBabel09122221133D

 39 44  0  0  1  0  0  0  0  0999 V2000
    3.6350  -10.4850    1.7500 C   0  0  0  0  0  0  0  0  0  0  0  0
    4.9790  -10.1220    1.8720 C   0  0  0  0  0  3  0  0  0  0  0  0
    5.3360   -9.0200    2.6540 C   0  0  0  0  0  3  0  0  0  0  0  0
    4.3650   -8.2540    3.3100 C   0  0  0  0  0  0  0  0  0  0  0  0
    3.0270   -8.6110    3.1790 C   0  0  0  0  0  3  0  0  0  0  0  0
    2.6720   -9.7230    2.4110 C   0  0  0  0  0  0  0  0  0  0  0  0
    1.3730  -10.0470    2.3310 F   0  0  0  0  0  0  0  0  0  0  0  0
    2.1030  -14.5940   -2.3200 C   0  0  0  0  0  0  0  0  0  0  0  0
    2.3230  -15.5000   -1.2700 C   0  0  0  0  0  3  0  0  0  0  0  0
    2.7120  -15.0810    0.0100 C   0  0  0  0  0  3  0  0  0  0  0  0
    2.8780  -13.7070    0.2180 C   0  0  0  0  0  0  0  0  0  0  0  0
    2.6720  -12.7800   -0.8000 C   0  0  0  0  0  0  0  0  0  0  0  0
    2.2810  -13.2190   -2.0750 C   0  0  0  0  0  3  0  0  0  0  0  0
    2.9150  -11.5040   -0.3570 N   0  0  0  0  0  0  0  0  0  0  0  0
    3.2540  -11.6140    0.9110 C   0  0  0  0  0  0  0  0  0  0  0  0
    3.2410  -12.9410    1.3090 N   0  0  0  0  0  0  0  0  0  0  0  0
    3.5830  -13.4290    2.6430 C   0  0  0  0  0  3  0  0  0  0  0  0
    2.4140  -14.1310    3.3500 C   0  0  0  0  0  2  0  0  0  0  0  0
    2.8070  -14.5860    4.7550 C   0  0  0  0  0  2  0  0  0  0  0  0
    4.0650  -15.4490    4.7380 C   0  0  0  0  0  2  0  0  0  0  0  0
    5.2290  -14.7360    4.0550 C   0  0  0  0  0  2  0  0  0  0  0  0
    4.8610  -14.2830    2.6440 C   0  0  0  0  0  2  0  0  0  0  0  0
    0.9010  -16.0890   -3.7290 O   0  0  0  0  0  1  0  0  0  0  0  0
    1.6870  -15.0890   -3.6900 C   0  0  0  0  0  0  0  0  0  0  0  0
    2.1530  -14.4740   -4.7000 O   0  0  0  0  0  0  0  0  0  0  0  0
    4.8710   -7.1890    3.9950 O   0  0  0  0  0  0  0  0  0  0  0  0
    5.0130   -5.8680    3.4340 C   0  0  1  0  0  3  0  0  0  0  0  0
    5.4300   -5.8450    1.9700 C   0  0  0  0  0  0  0  0  0  0  0  0
    4.5450   -5.9840    0.8960 C   0  0  0  0  0  3  0  0  0  0  0  0
    5.0230   -5.9610   -0.4130 C   0  0  0  0  0  3  0  0  0  0  0  0
    6.3820   -5.8110   -0.6170 C   0  0  0  0  0  3  0  0  0  0  0  0
    7.2760   -5.6910    0.3840 N   0  0  0  0  0  0  0  0  0  0  0  0
    6.7830   -5.7160    1.6440 C   0  0  0  0  0  3  0  0  0  0  0  0
    3.9690   -4.8660    3.9090 C   0  0  0  0  0  0  0  0  0  0  0  0
    4.1100   -3.5080    3.5870 C   0  0  0  0  0  3  0  0  0  0  0  0
    3.1580   -2.5830    4.0090 C   0  0  0  0  0  3  0  0  0  0  0  0
    2.0810   -3.0440    4.7410 C   0  0  0  0  0  3  0  0  0  0  0  0
    1.9010   -4.3400    5.0700 N   0  0  0  0  0  0  0  0  0  0  0  0
    2.8450   -5.2160    4.6540 C   0  0  0  0  0  3  0  0  0  0  0  0
  1  2  2  0  0  0  0
  1  6  1  0  0  0  0
  2  3  1  0  0  0  0
  3  4  2  0  0  0  0
  4 26  1  0  0  0  0
  5  4  1  0  0  0  0
  6  5  2  0  0  0  0
  7  6  1  0  0  0  0
  8 13  2  0  0  0  0
  8  9  1  0  0  0  0
  9 10  2  0  0  0  0
 10 11  1  0  0  0  0
 11 16  1  0  0  0  0
 12 14  1  0  0  0  0
 12 11  2  0  0  0  0
 13 12  1  0  0  0  0
 14 15  2  0  0  0  0
 15 16  1  0  0  0  0
 15  1  1  0  0  0  0
 16 17  1  0  0  0  0
 17 22  1  0  0  0  0
 17 18  1  0  0  0  0
 18 19  1  0  0  0  0
 20 19  1  0  0  0  0
 21 20  1  0  0  0  0
 22 21  1  0  0  0  0
 23 24  1  0  0  0  0
 24  8  1  0  0  0  0
 25 24  2  0  0  0  0
 27 34  1  0  0  0  0
 27 26  1  6  0  0  0
 28 27  1  0  0  0  0
 29 28  2  0  0  0  0
 30 29  1  0  0  0  0
 31 30  2  0  0  0  0
 31 32  1  0  0  0  0
 32 33  2  0  0  0  0
 33 28  1  0  0  0  0
 34 39  1  0  0  0  0
 35 34  2  0  0  0  0
 35 36  1  0  0  0  0
 36 37  2  0  0  0  0
 37 38  1  0  0  0  0
 39 38  2  0  0  0  0
M  END
>  <minimizedAffinity>
-8.69595242

$$$$
