
 OpenBabel09122222393D

 39 44  0  0  1  0  0  0  0  0999 V2000
    5.3020   -7.5390    1.8690 C   0  0  0  0  0  0  0  0  0  0  0  0
    5.4700   -8.3870    2.9670 C   0  0  0  0  0  3  0  0  0  0  0  0
    4.5460   -9.4060    3.2110 C   0  0  0  0  0  3  0  0  0  0  0  0
    3.4330   -9.5860    2.3810 C   0  0  0  0  0  0  0  0  0  0  0  0
    3.2620   -8.7350    1.2940 C   0  0  0  0  0  3  0  0  0  0  0  0
    4.1950   -7.7270    1.0420 C   0  0  0  0  0  0  0  0  0  0  0  0
    4.0060   -6.9440   -0.0300 F   0  0  0  0  0  0  0  0  0  0  0  0
    9.3850   -3.4980    0.2000 C   0  0  0  0  0  0  0  0  0  0  0  0
    8.8120   -2.7180    1.2180 C   0  0  0  0  0  3  0  0  0  0  0  0
    7.7550   -3.1830    2.0110 C   0  0  0  0  0  3  0  0  0  0  0  0
    7.2740   -4.4740    1.7560 C   0  0  0  0  0  0  0  0  0  0  0  0
    7.8150   -5.2740    0.7530 C   0  0  0  0  0  0  0  0  0  0  0  0
    8.8760   -4.7900   -0.0290 C   0  0  0  0  0  3  0  0  0  0  0  0
    7.1660   -6.4810    0.6870 N   0  0  0  0  0  0  0  0  0  0  0  0
    6.2460   -6.4550    1.6280 C   0  0  0  0  0  0  0  0  0  0  0  0
    6.2770   -5.2510    2.3120 N   0  0  0  0  0  0  0  0  0  0  0  0
    5.3830   -4.8740    3.4050 C   0  0  0  0  0  3  0  0  0  0  0  0
    6.0640   -4.0000    4.4700 C   0  0  0  0  0  2  0  0  0  0  0  0
    5.1040   -3.6670    5.6110 C   0  0  0  0  0  2  0  0  0  0  0  0
    3.8120   -3.0390    5.0970 C   0  0  0  0  0  2  0  0  0  0  0  0
    3.1300   -3.9240    4.0580 C   0  0  0  0  0  2  0  0  0  0  0  0
    4.0680   -4.2590    2.9010 C   0  0  0  0  0  2  0  0  0  0  0  0
   11.1390   -3.7810   -1.3850 O   0  0  0  0  0  0  0  0  0  0  0  0
   10.5260   -2.9540   -0.6370 C   0  0  0  0  0  0  0  0  0  0  0  0
   10.7900   -1.7160   -0.5290 O   0  0  0  0  0  1  0  0  0  0  0  0
    2.6050  -10.5930    2.7790 O   0  0  0  0  0  0  0  0  0  0  0  0
    2.8690  -11.9910    2.5410 C   0  0  1  0  0  3  0  0  0  0  0  0
    2.9270  -12.3820    1.0710 C   0  0  0  0  0  0  0  0  0  0  0  0
    4.1040  -12.6920    0.3820 C   0  0  0  0  0  3  0  0  0  0  0  0
    4.0580  -13.0280   -0.9690 C   0  0  0  0  0  3  0  0  0  0  0  0
    2.8300  -13.0350   -1.6060 C   0  0  0  0  0  3  0  0  0  0  0  0
    1.6710  -12.7280   -0.9910 N   0  0  0  0  0  0  0  0  0  0  0  0
    1.7470  -12.4050    0.3210 C   0  0  0  0  0  3  0  0  0  0  0  0
    3.8770  -12.6140    3.5000 C   0  0  0  0  0  0  0  0  0  0  0  0
    3.5310  -12.8060    4.8450 C   0  0  0  0  0  3  0  0  0  0  0  0
    4.4400  -13.3810    5.7290 C   0  0  0  0  0  3  0  0  0  0  0  0
    5.6770  -13.7560    5.2400 C   0  0  0  0  0  3  0  0  0  0  0  0
    6.0520  -13.5960    3.9550 N   0  0  0  0  0  0  0  0  0  0  0  0
    5.1510  -13.0270    3.1180 C   0  0  0  0  0  3  0  0  0  0  0  0
  1  2  1  0  0  0  0
  2  3  2  0  0  0  0
  4 26  1  0  0  0  0
  4  3  1  0  0  0  0
  5  4  2  0  0  0  0
  6  5  1  0  0  0  0
  6  1  2  0  0  0  0
  7  6  1  0  0  0  0
  8  9  1  0  0  0  0
  9 10  2  0  0  0  0
 11 10  1  0  0  0  0
 11 16  1  0  0  0  0
 12 11  2  0  0  0  0
 13  8  2  0  0  0  0
 13 12  1  0  0  0  0
 14 12  1  0  0  0  0
 14 15  2  0  0  0  0
 15  1  1  0  0  0  0
 15 16  1  0  0  0  0
 16 17  1  0  0  0  0
 17 18  1  0  0  0  0
 18 19  1  0  0  0  0
 20 19  1  0  0  0  0
 21 20  1  0  0  0  0
 22 17  1  0  0  0  0
 22 21  1  0  0  0  0
 23 24  2  0  0  0  0
 24 25  1  0  0  0  0
 24  8  1  0  0  0  0
 27 26  1  6  0  0  0
 27 34  1  0  0  0  0
 28 27  1  0  0  0  0
 29 28  1  0  0  0  0
 30 29  2  0  0  0  0
 31 32  2  0  0  0  0
 31 30  1  0  0  0  0
 32 33  1  0  0  0  0
 33 28  2  0  0  0  0
 34 35  1  0  0  0  0
 35 36  2  0  0  0  0
 37 36  1  0  0  0  0
 38 37  2  0  0  0  0
 39 34  2  0  0  0  0
 39 38  1  0  0  0  0
M  END
>  <minimizedAffinity>
-9.06611824

$$$$
