
 OpenBabel09132204463D

 24 25  0  0  1  0  0  0  0  0999 V2000
    5.3250   -3.9870    7.4010 C   0  0  0  0  0  0  0  0  0  0  0  0
    5.6600   -4.0610    6.0400 C   0  0  0  0  0  3  0  0  0  0  0  0
    4.7330   -3.7570    5.0230 C   0  0  0  0  0  0  0  0  0  0  0  0
    5.1580   -3.8640    3.5840 C   0  0  0  0  0  1  0  0  0  0  0  0
    3.4310   -3.3920    5.3830 C   0  0  0  0  0  0  0  0  0  0  0  0
    2.2380   -3.0140    4.1930 Cl  0  0  0  0  0  0  0  0  0  0  0  0
    3.0620   -3.3380    6.7230 C   0  0  0  0  0  3  0  0  0  0  0  0
    4.0030   -3.6320    7.7230 C   0  0  0  0  0  0  0  0  0  0  0  0
    8.1520   -2.7950    7.9020 C   0  0  0  0  0  1  0  0  0  0  0  0
    7.5520   -3.9690    8.6270 C   0  0  0  0  0  0  0  0  0  0  0  0
    8.2290   -4.5820    9.4560 O   0  0  0  0  0  0  0  0  0  0  0  0
    6.2530   -4.3280    8.4100 N   0  0  0  0  0  0  0  0  0  0  0  0
    5.9080   -4.9600    9.1420 H   0  0  0  0  0  0  0  0  0  0  0  0
    3.4570   -3.5200    9.4280 S   0  0  0  0  0  0  0  0  0  0  0  0
    2.0140   -3.4530    9.3920 O   0  0  0  0  0  0  0  0  0  0  0  0
    4.1660   -4.5810   10.1150 O   0  0  0  0  0  0  0  0  0  0  0  0
    4.1260   -2.0270    9.8610 N   0  0  0  0  0  0  0  0  0  0  0  0
    5.3340   -1.5760    9.1310 C   0  0  0  0  0  2  0  0  0  0  0  0
    5.4500   -0.0860    9.4460 C   0  0  0  0  0  2  0  0  0  0  0  0
    4.1280    0.3110   10.0980 C   0  0  0  0  0  2  0  0  0  0  0  0
    3.1800   -0.8550    9.8210 C   0  0  1  0  0  3  0  0  0  0  0  0
    2.4130   -0.6310    8.4830 C   0  0  0  0  0  0  0  0  0  0  0  0
    1.1640   -0.8110    8.5500 O   0  0  0  0  0  1  0  0  0  0  0  0
    3.1190   -0.2630    7.4980 O   0  0  0  0  0  0  0  0  0  0  0  0
  1  8  1  0  0  0  0
  1 12  1  0  0  0  0
  2  1  2  0  0  0  0
  3  5  2  0  0  0  0
  3  2  1  0  0  0  0
  4  3  1  0  0  0  0
  5  7  1  0  0  0  0
  6  5  1  0  0  0  0
  7  8  2  0  0  0  0
  8 14  1  0  0  0  0
  9 10  1  0  0  0  0
 10 11  2  0  0  0  0
 12 10  1  0  0  0  0
 12 13  1  0  0  0  0
 14 17  1  0  0  0  0
 14 16  2  0  0  0  0
 15 14  2  0  0  0  0
 18 19  1  0  0  0  0
 18 17  1  0  0  0  0
 19 20  1  0  0  0  0
 21 22  1  6  0  0  0
 21 17  1  0  0  0  0
 21 20  1  0  0  0  0
 22 23  1  0  0  0  0
 24 22  2  0  0  0  0
M  END
>  <minimizedAffinity>
-1.95327675

$$$$
