
 OpenBabel09122223103D

 24 25  0  0  1  0  0  0  0  0999 V2000
    6.8850   -3.1850    6.2240 C   0  0  0  0  0  0  0  0  0  0  0  0
    7.6960   -3.0540    5.0870 C   0  0  0  0  0  3  0  0  0  0  0  0
    7.2380   -3.3910    3.7970 C   0  0  0  0  0  0  0  0  0  0  0  0
    8.1630   -3.2310    2.6220 C   0  0  0  0  0  1  0  0  0  0  0  0
    5.9400   -3.8930    3.6510 C   0  0  0  0  0  0  0  0  0  0  0  0
    5.3120   -4.3350    2.1050 Cl  0  0  0  0  0  0  0  0  0  0  0  0
    5.1230   -4.0620    4.7640 C   0  0  0  0  0  3  0  0  0  0  0  0
    5.5930   -3.7090    6.0400 C   0  0  0  0  0  0  0  0  0  0  0  0
    6.9840   -0.4180    7.6360 C   0  0  0  0  0  1  0  0  0  0  0  0
    7.5800   -1.6950    8.1630 C   0  0  0  0  0  0  0  0  0  0  0  0
    8.2280   -1.6760    9.2120 O   0  0  0  0  0  0  0  0  0  0  0  0
    7.3680   -2.8780    7.5160 N   0  0  0  0  0  0  0  0  0  0  0  0
    7.6030   -3.6820    8.1100 H   0  0  0  0  0  0  0  0  0  0  0  0
    4.4730   -3.9360    7.4220 S   0  0  0  0  0  0  0  0  0  0  0  0
    3.2930   -4.5820    6.8920 O   0  0  0  0  0  0  0  0  0  0  0  0
    5.2840   -4.5380    8.4620 O   0  0  0  0  0  0  0  0  0  0  0  0
    4.1560   -2.3220    7.8220 N   0  0  0  0  0  0  0  0  0  0  0  0
    3.1870   -1.5830    6.9800 C   0  0  0  0  0  2  0  0  0  0  0  0
    2.8200   -0.3460    7.7980 C   0  0  0  0  0  2  0  0  0  0  0  0
    3.3660   -0.5910    9.2020 C   0  0  0  0  0  2  0  0  0  0  0  0
    3.7110   -2.0800    9.2420 C   0  0  1  0  0  3  0  0  0  0  0  0
    2.4900   -2.9110    9.7360 C   0  0  0  0  0  0  0  0  0  0  0  0
    1.3760   -2.3210    9.6510 O   0  0  0  0  0  0  0  0  0  0  0  0
    2.7470   -4.0870   10.1300 O   0  0  0  0  0  1  0  0  0  0  0  0
  1 12  1  0  0  0  0
  2  1  2  0  0  0  0
  3  2  1  0  0  0  0
  4  3  1  0  0  0  0
  5  3  2  0  0  0  0
  5  7  1  0  0  0  0
  6  5  1  0  0  0  0
  7  8  2  0  0  0  0
  8  1  1  0  0  0  0
  8 14  1  0  0  0  0
  9 10  1  0  0  0  0
 10 11  2  0  0  0  0
 12 13  1  0  0  0  0
 12 10  1  0  0  0  0
 14 17  1  0  0  0  0
 14 16  2  0  0  0  0
 15 14  2  0  0  0  0
 17 21  1  0  0  0  0
 18 19  1  0  0  0  0
 18 17  1  0  0  0  0
 19 20  1  0  0  0  0
 20 21  1  0  0  0  0
 21 22  1  6  0  0  0
 22 24  1  0  0  0  0
 23 22  2  0  0  0  0
M  END
>  <minimizedAffinity>
-3.48192525

$$$$

 OpenBabel09122223103D

 24 25  0  0  1  0  0  0  0  0999 V2000
    4.9860   -4.1770    6.1580 C   0  0  0  0  0  0  0  0  0  0  0  0
    4.5380   -4.4050    4.8480 C   0  0  0  0  0  3  0  0  0  0  0  0
    5.3640   -4.1930    3.7260 C   0  0  0  0  0  0  0  0  0  0  0  0
    4.8170   -4.4520    2.3490 C   0  0  0  0  0  1  0  0  0  0  0  0
    6.6640   -3.7170    3.9250 C   0  0  0  0  0  0  0  0  0  0  0  0
    7.7320   -3.4240    2.6000 Cl  0  0  0  0  0  0  0  0  0  0  0  0
    7.1270   -3.4540    5.2100 C   0  0  0  0  0  3  0  0  0  0  0  0
    6.2930   -3.6830    6.3170 C   0  0  0  0  0  0  0  0  0  0  0  0
    2.5590   -2.4450    7.0360 C   0  0  0  0  0  1  0  0  0  0  0  0
    3.1480   -3.5910    7.8130 C   0  0  0  0  0  0  0  0  0  0  0  0
    2.7010   -3.8610    8.9310 O   0  0  0  0  0  0  0  0  0  0  0  0
    4.1370   -4.3610    7.2720 N   0  0  0  0  0  0  0  0  0  0  0  0
    4.2570   -5.2400    7.7880 H   0  0  0  0  0  0  0  0  0  0  0  0
    6.9680   -3.3400    7.9430 S   0  0  0  0  0  0  0  0  0  0  0  0
    6.8860   -4.5750    8.6890 O   0  0  0  0  0  0  0  0  0  0  0  0
    8.2290   -2.6710    7.6890 O   0  0  0  0  0  0  0  0  0  0  0  0
    5.8390   -2.2120    8.5070 N   0  0  0  0  0  0  0  0  0  0  0  0
    5.7440   -2.0060    9.9710 C   0  0  0  0  0  2  0  0  0  0  0  0
    4.9720   -0.6990   10.1350 C   0  0  0  0  0  2  0  0  0  0  0  0
    4.9250   -0.0600    8.7500 C   0  0  0  0  0  2  0  0  0  0  0  0
    5.9550   -0.8280    7.9210 C   0  0  1  0  0  3  0  0  0  0  0  0
    7.3540   -0.1500    8.0210 C   0  0  0  0  0  0  0  0  0  0  0  0
    7.9980   -0.0990    6.9350 O   0  0  0  0  0  0  0  0  0  0  0  0
    7.6690    0.3010    9.1620 O   0  0  0  0  0  1  0  0  0  0  0  0
  1  8  1  0  0  0  0
  1 12  1  0  0  0  0
  2  1  2  0  0  0  0
  3  5  2  0  0  0  0
  3  2  1  0  0  0  0
  4  3  1  0  0  0  0
  5  7  1  0  0  0  0
  6  5  1  0  0  0  0
  7  8  2  0  0  0  0
  8 14  1  0  0  0  0
  9 10  1  0  0  0  0
 10 11  2  0  0  0  0
 12 13  1  0  0  0  0
 12 10  1  0  0  0  0
 14 17  1  0  0  0  0
 14 15  2  0  0  0  0
 16 14  2  0  0  0  0
 17 18  1  0  0  0  0
 18 19  1  0  0  0  0
 20 19  1  0  0  0  0
 21 22  1  1  0  0  0
 21 17  1  0  0  0  0
 21 20  1  0  0  0  0
 22 24  1  0  0  0  0
 23 22  2  0  0  0  0
M  END
>  <minimizedAffinity>
-2.98643804

$$$$

 OpenBabel09122223103D

 24 25  0  0  1  0  0  0  0  0999 V2000
    3.3380   -1.4770    7.3100 C   0  0  0  0  0  0  0  0  0  0  0  0
    2.4450   -1.1130    6.2910 C   0  0  0  0  0  3  0  0  0  0  0  0
    2.0270   -2.0250    5.3000 C   0  0  0  0  0  0  0  0  0  0  0  0
    1.0710   -1.5660    4.2330 C   0  0  0  0  0  1  0  0  0  0  0  0
    2.5380   -3.3270    5.3220 C   0  0  0  0  0  0  0  0  0  0  0  0
    2.0800   -4.4970    4.1380 Cl  0  0  0  0  0  0  0  0  0  0  0  0
    3.4480   -3.7080    6.3030 C   0  0  0  0  0  3  0  0  0  0  0  0
    3.8430   -2.7890    7.2890 C   0  0  0  0  0  0  0  0  0  0  0  0
    2.1600   -0.9310   10.1350 C   0  0  0  0  0  1  0  0  0  0  0  0
    3.2510   -0.1370    9.4690 C   0  0  0  0  0  0  0  0  0  0  0  0
    3.7030    0.8640   10.0300 O   0  0  0  0  0  0  0  0  0  0  0  0
    3.7760   -0.5440    8.2760 N   0  0  0  0  0  0  0  0  0  0  0  0
    4.6650   -0.0720    8.0730 H   0  0  0  0  0  0  0  0  0  0  0  0
    5.0030   -3.3610    8.5320 S   0  0  0  0  0  0  0  0  0  0  0  0
    4.2770   -3.4020    9.7810 O   0  0  0  0  0  0  0  0  0  0  0  0
    5.6150   -4.5410    7.9540 O   0  0  0  0  0  0  0  0  0  0  0  0
    6.1160   -2.0870    8.5160 N   0  0  0  0  0  0  0  0  0  0  0  0
    7.2020   -2.1090    9.5240 C   0  0  0  0  0  2  0  0  0  0  0  0
    8.2300   -1.1000    9.0160 C   0  0  0  0  0  2  0  0  0  0  0  0
    7.8250   -0.7700    7.5820 C   0  0  0  0  0  2  0  0  0  0  0  0
    6.8060   -1.8430    7.1980 C   0  0  1  0  0  3  0  0  0  0  0  0
    7.5190   -3.0690    6.5540 C   0  0  0  0  0  0  0  0  0  0  0  0
    7.3290   -3.2020    5.3110 O   0  0  0  0  0  0  0  0  0  0  0  0
    8.2300   -3.7680    7.3360 O   0  0  0  0  0  1  0  0  0  0  0  0
  1 12  1  0  0  0  0
  2  1  2  0  0  0  0
  3  5  2  0  0  0  0
  3  2  1  0  0  0  0
  4  3  1  0  0  0  0
  5  7  1  0  0  0  0
  6  5  1  0  0  0  0
  7  8  2  0  0  0  0
  8  1  1  0  0  0  0
  8 14  1  0  0  0  0
 10 11  2  0  0  0  0
 10  9  1  0  0  0  0
 12 10  1  0  0  0  0
 13 12  1  0  0  0  0
 14 15  2  0  0  0  0
 16 14  2  0  0  0  0
 17 14  1  0  0  0  0
 17 18  1  0  0  0  0
 19 18  1  0  0  0  0
 20 19  1  0  0  0  0
 21 22  1  1  0  0  0
 21 20  1  0  0  0  0
 21 17  1  0  0  0  0
 22 24  1  0  0  0  0
 23 22  2  0  0  0  0
M  END
>  <minimizedAffinity>
-2.8303957

$$$$

 OpenBabel09122223103D

 24 25  0  0  1  0  0  0  0  0999 V2000
    3.8860   -3.6580    6.1600 C   0  0  0  0  0  0  0  0  0  0  0  0
    3.5460   -3.7120    4.8000 C   0  0  0  0  0  3  0  0  0  0  0  0
    4.5190   -3.8510    3.7900 C   0  0  0  0  0  0  0  0  0  0  0  0
    4.0850   -3.8970    2.3500 C   0  0  0  0  0  1  0  0  0  0  0  0
    5.8680   -3.9140    4.1550 C   0  0  0  0  0  0  0  0  0  0  0  0
    7.1180   -4.0750    2.9750 Cl  0  0  0  0  0  0  0  0  0  0  0  0
    6.2370   -3.8330    5.4940 C   0  0  0  0  0  3  0  0  0  0  0  0
    5.2520   -3.7070    6.4870 C   0  0  0  0  0  0  0  0  0  0  0  0
    2.4630   -1.0330    7.0250 C   0  0  0  0  0  1  0  0  0  0  0  0
    2.3280   -2.3700    7.7020 C   0  0  0  0  0  0  0  0  0  0  0  0
    1.6550   -2.4650    8.7310 O   0  0  0  0  0  0  0  0  0  0  0  0
    2.9030   -3.4830    7.1600 N   0  0  0  0  0  0  0  0  0  0  0  0
    2.5220   -4.3440    7.5700 H   0  0  0  0  0  0  0  0  0  0  0  0
    5.8050   -3.6300    8.1920 S   0  0  0  0  0  0  0  0  0  0  0  0
    4.9900   -4.5690    8.9290 O   0  0  0  0  0  0  0  0  0  0  0  0
    7.2480   -3.7470    8.1200 O   0  0  0  0  0  0  0  0  0  0  0  0
    5.3900   -2.0330    8.5720 N   0  0  0  0  0  0  0  0  0  0  0  0
    5.5840   -1.5870    9.9720 C   0  0  0  0  0  2  0  0  0  0  0  0
    5.5150   -0.0630    9.9110 C   0  0  0  0  0  2  0  0  0  0  0  0
    5.5900    0.3040    8.4320 C   0  0  0  0  0  2  0  0  0  0  0  0
    6.0460   -0.9720    7.7260 C   0  0  1  0  0  3  0  0  0  0  0  0
    7.6010   -1.0220    7.6360 C   0  0  0  0  0  0  0  0  0  0  0  0
    8.0630   -1.1010    6.4630 O   0  0  0  0  0  0  0  0  0  0  0  0
    8.2200   -0.9430    8.7380 O   0  0  0  0  0  1  0  0  0  0  0  0
  1  8  1  0  0  0  0
  1 12  1  0  0  0  0
  2  1  2  0  0  0  0
  3  5  2  0  0  0  0
  3  2  1  0  0  0  0
  4  3  1  0  0  0  0
  5  7  1  0  0  0  0
  6  5  1  0  0  0  0
  7  8  2  0  0  0  0
  8 14  1  0  0  0  0
  9 10  1  0  0  0  0
 10 11  2  0  0  0  0
 12 13  1  0  0  0  0
 12 10  1  0  0  0  0
 14 17  1  0  0  0  0
 14 15  2  0  0  0  0
 16 14  2  0  0  0  0
 17 18  1  0  0  0  0
 19 18  1  0  0  0  0
 20 19  1  0  0  0  0
 21 22  1  1  0  0  0
 21 20  1  0  0  0  0
 21 17  1  0  0  0  0
 22 24  1  0  0  0  0
 23 22  2  0  0  0  0
M  END
>  <minimizedAffinity>
-2.46041322

$$$$

 OpenBabel09122223103D

 24 25  0  0  1  0  0  0  0  0999 V2000
    5.3250   -3.9870    7.4010 C   0  0  0  0  0  0  0  0  0  0  0  0
    5.6600   -4.0610    6.0400 C   0  0  0  0  0  3  0  0  0  0  0  0
    4.7330   -3.7570    5.0230 C   0  0  0  0  0  0  0  0  0  0  0  0
    5.1580   -3.8640    3.5840 C   0  0  0  0  0  1  0  0  0  0  0  0
    3.4310   -3.3920    5.3830 C   0  0  0  0  0  0  0  0  0  0  0  0
    2.2380   -3.0140    4.1930 Cl  0  0  0  0  0  0  0  0  0  0  0  0
    3.0620   -3.3380    6.7230 C   0  0  0  0  0  3  0  0  0  0  0  0
    4.0030   -3.6320    7.7230 C   0  0  0  0  0  0  0  0  0  0  0  0
    8.1520   -2.7950    7.9020 C   0  0  0  0  0  1  0  0  0  0  0  0
    7.5520   -3.9690    8.6270 C   0  0  0  0  0  0  0  0  0  0  0  0
    8.2290   -4.5820    9.4560 O   0  0  0  0  0  0  0  0  0  0  0  0
    6.2530   -4.3280    8.4100 N   0  0  0  0  0  0  0  0  0  0  0  0
    5.9080   -4.9600    9.1420 H   0  0  0  0  0  0  0  0  0  0  0  0
    3.4570   -3.5200    9.4280 S   0  0  0  0  0  0  0  0  0  0  0  0
    2.0140   -3.4530    9.3920 O   0  0  0  0  0  0  0  0  0  0  0  0
    4.1660   -4.5810   10.1150 O   0  0  0  0  0  0  0  0  0  0  0  0
    4.1260   -2.0270    9.8610 N   0  0  0  0  0  0  0  0  0  0  0  0
    5.3340   -1.5760    9.1310 C   0  0  0  0  0  2  0  0  0  0  0  0
    5.4500   -0.0860    9.4460 C   0  0  0  0  0  2  0  0  0  0  0  0
    4.1280    0.3110   10.0980 C   0  0  0  0  0  2  0  0  0  0  0  0
    3.1800   -0.8550    9.8210 C   0  0  1  0  0  3  0  0  0  0  0  0
    2.4130   -0.6310    8.4830 C   0  0  0  0  0  0  0  0  0  0  0  0
    1.1640   -0.8110    8.5500 O   0  0  0  0  0  1  0  0  0  0  0  0
    3.1190   -0.2630    7.4980 O   0  0  0  0  0  0  0  0  0  0  0  0
  1  8  1  0  0  0  0
  1 12  1  0  0  0  0
  2  1  2  0  0  0  0
  3  5  2  0  0  0  0
  3  2  1  0  0  0  0
  4  3  1  0  0  0  0
  5  7  1  0  0  0  0
  6  5  1  0  0  0  0
  7  8  2  0  0  0  0
  8 14  1  0  0  0  0
  9 10  1  0  0  0  0
 10 11  2  0  0  0  0
 12 10  1  0  0  0  0
 12 13  1  0  0  0  0
 14 17  1  0  0  0  0
 14 16  2  0  0  0  0
 15 14  2  0  0  0  0
 18 19  1  0  0  0  0
 18 17  1  0  0  0  0
 19 20  1  0  0  0  0
 21 22  1  6  0  0  0
 21 17  1  0  0  0  0
 21 20  1  0  0  0  0
 22 23  1  0  0  0  0
 24 22  2  0  0  0  0
M  END
>  <minimizedAffinity>
-1.95327675

$$$$

 OpenBabel09122223103D

 24 25  0  0  1  0  0  0  0  0999 V2000
    5.3590   -1.1610    7.9910 C   0  0  0  0  0  0  0  0  0  0  0  0
    4.3950   -0.5490    8.8050 C   0  0  0  0  0  3  0  0  0  0  0  0
    3.2570   -1.2410    9.2690 C   0  0  0  0  0  0  0  0  0  0  0  0
    2.2600   -0.5210   10.1350 C   0  0  0  0  0  1  0  0  0  0  0  0
    3.0740   -2.5740    8.8850 C   0  0  0  0  0  0  0  0  0  0  0  0
    1.7020   -3.4840    9.4060 Cl  0  0  0  0  0  0  0  0  0  0  0  0
    3.9980   -3.1980    8.0540 C   0  0  0  0  0  3  0  0  0  0  0  0
    5.1320   -2.4970    7.6120 C   0  0  0  0  0  0  0  0  0  0  0  0
    7.7210    0.0550    9.6040 C   0  0  0  0  0  1  0  0  0  0  0  0
    7.4770    0.2370    8.1310 C   0  0  0  0  0  0  0  0  0  0  0  0
    8.2190    0.9760    7.4790 O   0  0  0  0  0  0  0  0  0  0  0  0
    6.4760   -0.4470    7.5040 N   0  0  0  0  0  0  0  0  0  0  0  0
    6.5880   -0.4300    6.4830 H   0  0  0  0  0  0  0  0  0  0  0  0
    6.2880   -3.3760    6.5600 S   0  0  0  0  0  0  0  0  0  0  0  0
    7.2570   -2.4020    6.1120 O   0  0  0  0  0  0  0  0  0  0  0  0
    6.6670   -4.5490    7.3240 O   0  0  0  0  0  0  0  0  0  0  0  0
    5.2590   -3.8370    5.2980 N   0  0  0  0  0  0  0  0  0  0  0  0
    4.3430   -2.8100    4.7490 C   0  0  0  0  0  2  0  0  0  0  0  0
    3.8620   -3.3860    3.4180 C   0  0  0  0  0  2  0  0  0  0  0  0
    4.7630   -4.5810    3.1250 C   0  0  0  0  0  2  0  0  0  0  0  0
    5.9350   -4.4460    4.0970 C   0  0  1  0  0  3  0  0  0  0  0  0
    7.0860   -3.6150    3.4560 C   0  0  0  0  0  0  0  0  0  0  0  0
    6.7920   -3.0590    2.3590 O   0  0  0  0  0  0  0  0  0  0  0  0
    8.1640   -3.5620    4.1180 O   0  0  0  0  0  1  0  0  0  0  0  0
  1  2  1  0  0  0  0
  2  3  2  0  0  0  0
  3  4  1  0  0  0  0
  5  3  1  0  0  0  0
  5  6  1  0  0  0  0
  7  5  2  0  0  0  0
  8  1  2  0  0  0  0
  8  7  1  0  0  0  0
 10  9  1  0  0  0  0
 11 10  2  0  0  0  0
 12  1  1  0  0  0  0
 12 10  1  0  0  0  0
 13 12  1  0  0  0  0
 14 16  2  0  0  0  0
 14  8  1  0  0  0  0
 15 14  2  0  0  0  0
 17 14  1  0  0  0  0
 18 17  1  0  0  0  0
 19 18  1  0  0  0  0
 20 19  1  0  0  0  0
 20 21  1  0  0  0  0
 21 22  1  6  0  0  0
 21 17  1  0  0  0  0
 22 24  1  0  0  0  0
 23 22  2  0  0  0  0
M  END
>  <minimizedAffinity>
-1.40103757

$$$$

 OpenBabel09122223103D

 24 25  0  0  1  0  0  0  0  0999 V2000
    4.5150   -1.7280    9.1980 C   0  0  0  0  0  0  0  0  0  0  0  0
    4.7770   -0.4840    9.7900 C   0  0  0  0  0  3  0  0  0  0  0  0
    5.9110    0.2820    9.4520 C   0  0  0  0  0  0  0  0  0  0  0  0
    6.1340    1.6070   10.1310 C   0  0  0  0  0  1  0  0  0  0  0  0
    6.8140   -0.2260    8.5140 C   0  0  0  0  0  0  0  0  0  0  0  0
    8.2300    0.6500    8.0550 Cl  0  0  0  0  0  0  0  0  0  0  0  0
    6.5960   -1.4710    7.9310 C   0  0  0  0  0  3  0  0  0  0  0  0
    5.4540   -2.2140    8.2710 C   0  0  0  0  0  0  0  0  0  0  0  0
    1.5430   -1.3400    8.3710 C   0  0  0  0  0  1  0  0  0  0  0  0
    2.0520   -2.3350    9.3780 C   0  0  0  0  0  0  0  0  0  0  0  0
    1.2490   -3.0340   10.0010 O   0  0  0  0  0  0  0  0  0  0  0  0
    3.3930   -2.5020    9.5710 N   0  0  0  0  0  0  0  0  0  0  0  0
    3.5970   -3.3710   10.0790 H   0  0  0  0  0  0  0  0  0  0  0  0
    5.2310   -3.8000    7.4630 S   0  0  0  0  0  0  0  0  0  0  0  0
    6.5120   -4.4680    7.5130 O   0  0  0  0  0  0  0  0  0  0  0  0
    4.0410   -4.3620    8.0690 O   0  0  0  0  0  0  0  0  0  0  0  0
    4.8710   -3.2890    5.8900 N   0  0  0  0  0  0  0  0  0  0  0  0
    5.3090   -4.1540    4.7690 C   0  0  0  0  0  2  0  0  0  0  0  0
    4.5170   -3.6600    3.5600 C   0  0  0  0  0  2  0  0  0  0  0  0
    3.4370   -2.7340    4.1130 C   0  0  0  0  0  2  0  0  0  0  0  0
    3.4180   -2.9970    5.6180 C   0  0  1  0  0  3  0  0  0  0  0  0
    2.4080   -4.1320    5.9630 C   0  0  0  0  0  0  0  0  0  0  0  0
    2.4960   -4.5820    7.1410 O   0  0  0  0  0  1  0  0  0  0  0  0
    1.5970   -4.4470    5.0430 O   0  0  0  0  0  0  0  0  0  0  0  0
  1 12  1  0  0  0  0
  1  2  1  0  0  0  0
  3  2  2  0  0  0  0
  3  4  1  0  0  0  0
  5  3  1  0  0  0  0
  6  5  1  0  0  0  0
  7  8  1  0  0  0  0
  7  5  2  0  0  0  0
  8  1  2  0  0  0  0
  9 10  1  0  0  0  0
 10 12  1  0  0  0  0
 10 11  2  0  0  0  0
 12 13  1  0  0  0  0
 14 15  2  0  0  0  0
 14 16  2  0  0  0  0
 14  8  1  0  0  0  0
 17 14  1  0  0  0  0
 18 17  1  0  0  0  0
 19 20  1  0  0  0  0
 19 18  1  0  0  0  0
 20 21  1  0  0  0  0
 21 17  1  0  0  0  0
 21 22  1  6  0  0  0
 22 23  1  0  0  0  0
 24 22  2  0  0  0  0
M  END
>  <minimizedAffinity>
-1.23066676

$$$$

 OpenBabel09122223103D

 24 25  0  0  1  0  0  0  0  0999 V2000
    4.1720   -3.2310    7.2080 C   0  0  0  0  0  0  0  0  0  0  0  0
    3.6190   -4.0020    6.1750 C   0  0  0  0  0  3  0  0  0  0  0  0
    2.6650   -3.4800    5.2780 C   0  0  0  0  0  0  0  0  0  0  0  0
    2.1100   -4.3640    4.1950 C   0  0  0  0  0  1  0  0  0  0  0  0
    2.2390   -2.1570    5.4410 C   0  0  0  0  0  0  0  0  0  0  0  0
    1.0680   -1.4490    4.3870 Cl  0  0  0  0  0  0  0  0  0  0  0  0
    2.7470   -1.3770    6.4740 C   0  0  0  0  0  3  0  0  0  0  0  0
    3.7070   -1.9110    7.3500 C   0  0  0  0  0  0  0  0  0  0  0  0
    3.6120   -4.5770    9.9540 C   0  0  0  0  0  1  0  0  0  0  0  0
    4.9700   -4.2560    9.3930 C   0  0  0  0  0  0  0  0  0  0  0  0
    5.9750   -4.4710   10.0760 O   0  0  0  0  0  0  0  0  0  0  0  0
    5.1010   -3.7770    8.1220 N   0  0  0  0  0  0  0  0  0  0  0  0
    6.0690   -3.8500    7.7870 H   0  0  0  0  0  0  0  0  0  0  0  0
    4.3290   -0.8380    8.6450 S   0  0  0  0  0  0  0  0  0  0  0  0
    4.1410    0.5170    8.1790 O   0  0  0  0  0  0  0  0  0  0  0  0
    3.7160   -1.3300    9.8630 O   0  0  0  0  0  0  0  0  0  0  0  0
    5.9670   -1.2660    8.6300 N   0  0  0  0  0  0  0  0  0  0  0  0
    6.7460   -0.9630    7.4060 C   0  0  0  0  0  2  0  0  0  0  0  0
    8.2080   -1.0830    7.8310 C   0  0  0  0  0  2  0  0  0  0  0  0
    8.2000   -1.1500    9.3560 C   0  0  0  0  0  2  0  0  0  0  0  0
    6.7920   -0.7190    9.7670 C   0  0  1  0  0  3  0  0  0  0  0  0
    6.7330    0.8210    9.9870 C   0  0  0  0  0  0  0  0  0  0  0  0
    7.8540    1.4060    9.9560 O   0  0  0  0  0  0  0  0  0  0  0  0
    5.5760    1.3140   10.1350 O   0  0  0  0  0  1  0  0  0  0  0  0
  1  8  1  0  0  0  0
  1 12  1  0  0  0  0
  2  1  2  0  0  0  0
  3  5  2  0  0  0  0
  3  2  1  0  0  0  0
  4  3  1  0  0  0  0
  5  7  1  0  0  0  0
  6  5  1  0  0  0  0
  7  8  2  0  0  0  0
  8 14  1  0  0  0  0
 10  9  1  0  0  0  0
 10 11  2  0  0  0  0
 12 10  1  0  0  0  0
 13 12  1  0  0  0  0
 14 16  2  0  0  0  0
 15 14  2  0  0  0  0
 17 14  1  0  0  0  0
 17 21  1  0  0  0  0
 18 19  1  0  0  0  0
 18 17  1  0  0  0  0
 19 20  1  0  0  0  0
 20 21  1  0  0  0  0
 21 22  1  6  0  0  0
 22 24  1  0  0  0  0
 23 22  2  0  0  0  0
M  END
>  <minimizedAffinity>
-1.15524387

$$$$

 OpenBabel09122223103D

 24 25  0  0  1  0  0  0  0  0999 V2000
    5.4010   -3.4710    4.4260 C   0  0  0  0  0  0  0  0  0  0  0  0
    4.0720   -3.4820    3.9790 C   0  0  0  0  0  3  0  0  0  0  0  0
    3.0330   -2.8620    4.7030 C   0  0  0  0  0  0  0  0  0  0  0  0
    1.6280   -2.9170    4.1680 C   0  0  0  0  0  1  0  0  0  0  0  0
    3.3360   -2.2370    5.9170 C   0  0  0  0  0  0  0  0  0  0  0  0
    2.1160   -1.4640    6.8640 Cl  0  0  0  0  0  0  0  0  0  0  0  0
    4.6400   -2.2350    6.4000 C   0  0  0  0  0  3  0  0  0  0  0  0
    5.6640   -2.8470    5.6590 C   0  0  0  0  0  0  0  0  0  0  0  0
    7.5190   -2.2260    2.5210 C   0  0  0  0  0  1  0  0  0  0  0  0
    7.3040   -3.6970    2.7550 C   0  0  0  0  0  0  0  0  0  0  0  0
    7.9600   -4.5170    2.1090 O   0  0  0  0  0  0  0  0  0  0  0  0
    6.4270   -4.1260    3.7090 N   0  0  0  0  0  0  0  0  0  0  0  0
    6.5710   -5.1170    3.9370 H   0  0  0  0  0  0  0  0  0  0  0  0
    7.3230   -2.7860    6.3380 S   0  0  0  0  0  0  0  0  0  0  0  0
    8.1190   -3.7050    5.5560 O   0  0  0  0  0  0  0  0  0  0  0  0
    7.6360   -1.3730    6.4260 O   0  0  0  0  0  0  0  0  0  0  0  0
    7.0380   -3.3950    7.8910 N   0  0  0  0  0  0  0  0  0  0  0  0
    8.2060   -3.8660    8.6700 C   0  0  0  0  0  2  0  0  0  0  0  0
    7.7030   -3.9660   10.1090 C   0  0  0  0  0  2  0  0  0  0  0  0
    6.3530   -3.2560   10.1350 C   0  0  0  0  0  2  0  0  0  0  0  0
    6.2870   -2.4770    8.8210 C   0  0  1  0  0  3  0  0  0  0  0  0
    6.8730   -1.0460    9.0020 C   0  0  0  0  0  0  0  0  0  0  0  0
    6.0920   -0.1070    8.6760 O   0  0  0  0  0  0  0  0  0  0  0  0
    8.0420   -0.9850    9.4850 O   0  0  0  0  0  1  0  0  0  0  0  0
  1  8  1  0  0  0  0
  2  1  2  0  0  0  0
  2  3  1  0  0  0  0
  3  5  2  0  0  0  0
  4  3  1  0  0  0  0
  5  7  1  0  0  0  0
  5  6  1  0  0  0  0
  8 14  1  0  0  0  0
  8  7  2  0  0  0  0
  9 10  1  0  0  0  0
 10 12  1  0  0  0  0
 11 10  2  0  0  0  0
 12 13  1  0  0  0  0
 12  1  1  0  0  0  0
 14 16  2  0  0  0  0
 14 17  1  0  0  0  0
 15 14  2  0  0  0  0
 17 18  1  0  0  0  0
 17 21  1  0  0  0  0
 18 19  1  0  0  0  0
 19 20  1  0  0  0  0
 21 22  1  1  0  0  0
 21 20  1  0  0  0  0
 22 24  1  0  0  0  0
 23 22  2  0  0  0  0
M  END
>  <minimizedAffinity>
-0.759065568

$$$$

 OpenBabel09122223103D

 24 25  0  0  1  0  0  0  0  0999 V2000
    5.1590   -3.3880    4.8530 C   0  0  0  0  0  0  0  0  0  0  0  0
    3.9090   -3.0590    4.3090 C   0  0  0  0  0  3  0  0  0  0  0  0
    2.9230   -2.3800    5.0520 C   0  0  0  0  0  0  0  0  0  0  0  0
    1.6010   -2.0630    4.4070 C   0  0  0  0  0  1  0  0  0  0  0  0
    3.1930   -2.0440    6.3830 C   0  0  0  0  0  0  0  0  0  0  0  0
    2.0330   -1.2180    7.3600 Cl  0  0  0  0  0  0  0  0  0  0  0  0
    4.4130   -2.3820    6.9590 C   0  0  0  0  0  3  0  0  0  0  0  0
    5.3880   -3.0490    6.1990 C   0  0  0  0  0  0  0  0  0  0  0  0
    7.2720   -2.2680    2.8670 C   0  0  0  0  0  1  0  0  0  0  0  0
    6.9900   -3.7240    3.1220 C   0  0  0  0  0  0  0  0  0  0  0  0
    7.5810   -4.5820    2.4620 O   0  0  0  0  0  0  0  0  0  0  0  0
    6.1250   -4.1010    4.1090 N   0  0  0  0  0  0  0  0  0  0  0  0
    6.2250   -5.0960    4.3400 H   0  0  0  0  0  0  0  0  0  0  0  0
    6.9430   -3.4330    7.0060 S   0  0  0  0  0  0  0  0  0  0  0  0
    6.6940   -4.5820    7.8480 O   0  0  0  0  0  0  0  0  0  0  0  0
    7.9210   -3.4550    5.9360 O   0  0  0  0  0  0  0  0  0  0  0  0
    7.1570   -2.0330    7.9320 N   0  0  0  0  0  0  0  0  0  0  0  0
    6.3130   -0.8590    7.6090 C   0  0  0  0  0  2  0  0  0  0  0  0
    6.4400    0.0610    8.8210 C   0  0  0  0  0  2  0  0  0  0  0  0
    7.1090   -0.7690    9.9130 C   0  0  0  0  0  2  0  0  0  0  0  0
    7.0260   -2.2140    9.4230 C   0  0  1  0  0  3  0  0  0  0  0  0
    5.7150   -2.8880    9.9260 C   0  0  0  0  0  0  0  0  0  0  0  0
    5.8030   -4.1310   10.1340 O   0  0  0  0  0  1  0  0  0  0  0  0
    4.7280   -2.1130   10.1000 O   0  0  0  0  0  0  0  0  0  0  0  0
  1  8  1  0  0  0  0
  2  1  2  0  0  0  0
  2  3  1  0  0  0  0
  3  5  2  0  0  0  0
  4  3  1  0  0  0  0
  5  7  1  0  0  0  0
  5  6  1  0  0  0  0
  8  7  2  0  0  0  0
  8 14  1  0  0  0  0
  9 10  1  0  0  0  0
 10 12  1  0  0  0  0
 11 10  2  0  0  0  0
 12 13  1  0  0  0  0
 12  1  1  0  0  0  0
 14 15  2  0  0  0  0
 14 17  1  0  0  0  0
 16 14  2  0  0  0  0
 17 21  1  0  0  0  0
 18 17  1  0  0  0  0
 18 19  1  0  0  0  0
 19 20  1  0  0  0  0
 21 20  1  0  0  0  0
 21 22  1  6  0  0  0
 22 24  2  0  0  0  0
 22 23  1  0  0  0  0
M  END
>  <minimizedAffinity>
-0.501356304

$$$$
