
 OpenBabel09132204463D

 24 25  0  0  1  0  0  0  0  0999 V2000
    5.1590   -3.3880    4.8530 C   0  0  0  0  0  0  0  0  0  0  0  0
    3.9090   -3.0590    4.3090 C   0  0  0  0  0  3  0  0  0  0  0  0
    2.9230   -2.3800    5.0520 C   0  0  0  0  0  0  0  0  0  0  0  0
    1.6010   -2.0630    4.4070 C   0  0  0  0  0  1  0  0  0  0  0  0
    3.1930   -2.0440    6.3830 C   0  0  0  0  0  0  0  0  0  0  0  0
    2.0330   -1.2180    7.3600 Cl  0  0  0  0  0  0  0  0  0  0  0  0
    4.4130   -2.3820    6.9590 C   0  0  0  0  0  3  0  0  0  0  0  0
    5.3880   -3.0490    6.1990 C   0  0  0  0  0  0  0  0  0  0  0  0
    7.2720   -2.2680    2.8670 C   0  0  0  0  0  1  0  0  0  0  0  0
    6.9900   -3.7240    3.1220 C   0  0  0  0  0  0  0  0  0  0  0  0
    7.5810   -4.5820    2.4620 O   0  0  0  0  0  0  0  0  0  0  0  0
    6.1250   -4.1010    4.1090 N   0  0  0  0  0  0  0  0  0  0  0  0
    6.2250   -5.0960    4.3400 H   0  0  0  0  0  0  0  0  0  0  0  0
    6.9430   -3.4330    7.0060 S   0  0  0  0  0  0  0  0  0  0  0  0
    6.6940   -4.5820    7.8480 O   0  0  0  0  0  0  0  0  0  0  0  0
    7.9210   -3.4550    5.9360 O   0  0  0  0  0  0  0  0  0  0  0  0
    7.1570   -2.0330    7.9320 N   0  0  0  0  0  0  0  0  0  0  0  0
    6.3130   -0.8590    7.6090 C   0  0  0  0  0  2  0  0  0  0  0  0
    6.4400    0.0610    8.8210 C   0  0  0  0  0  2  0  0  0  0  0  0
    7.1090   -0.7690    9.9130 C   0  0  0  0  0  2  0  0  0  0  0  0
    7.0260   -2.2140    9.4230 C   0  0  1  0  0  3  0  0  0  0  0  0
    5.7150   -2.8880    9.9260 C   0  0  0  0  0  0  0  0  0  0  0  0
    5.8030   -4.1310   10.1340 O   0  0  0  0  0  1  0  0  0  0  0  0
    4.7280   -2.1130   10.1000 O   0  0  0  0  0  0  0  0  0  0  0  0
  1  8  1  0  0  0  0
  2  1  2  0  0  0  0
  2  3  1  0  0  0  0
  3  5  2  0  0  0  0
  4  3  1  0  0  0  0
  5  7  1  0  0  0  0
  5  6  1  0  0  0  0
  8  7  2  0  0  0  0
  8 14  1  0  0  0  0
  9 10  1  0  0  0  0
 10 12  1  0  0  0  0
 11 10  2  0  0  0  0
 12 13  1  0  0  0  0
 12  1  1  0  0  0  0
 14 15  2  0  0  0  0
 14 17  1  0  0  0  0
 16 14  2  0  0  0  0
 17 21  1  0  0  0  0
 18 17  1  0  0  0  0
 18 19  1  0  0  0  0
 19 20  1  0  0  0  0
 21 20  1  0  0  0  0
 21 22  1  6  0  0  0
 22 24  2  0  0  0  0
 22 23  1  0  0  0  0
M  END
>  <minimizedAffinity>
-0.501356304

$$$$
