
 OpenBabel09132204463D

 24 25  0  0  1  0  0  0  0  0999 V2000
    5.3590   -1.1610    7.9910 C   0  0  0  0  0  0  0  0  0  0  0  0
    4.3950   -0.5490    8.8050 C   0  0  0  0  0  3  0  0  0  0  0  0
    3.2570   -1.2410    9.2690 C   0  0  0  0  0  0  0  0  0  0  0  0
    2.2600   -0.5210   10.1350 C   0  0  0  0  0  1  0  0  0  0  0  0
    3.0740   -2.5740    8.8850 C   0  0  0  0  0  0  0  0  0  0  0  0
    1.7020   -3.4840    9.4060 Cl  0  0  0  0  0  0  0  0  0  0  0  0
    3.9980   -3.1980    8.0540 C   0  0  0  0  0  3  0  0  0  0  0  0
    5.1320   -2.4970    7.6120 C   0  0  0  0  0  0  0  0  0  0  0  0
    7.7210    0.0550    9.6040 C   0  0  0  0  0  1  0  0  0  0  0  0
    7.4770    0.2370    8.1310 C   0  0  0  0  0  0  0  0  0  0  0  0
    8.2190    0.9760    7.4790 O   0  0  0  0  0  0  0  0  0  0  0  0
    6.4760   -0.4470    7.5040 N   0  0  0  0  0  0  0  0  0  0  0  0
    6.5880   -0.4300    6.4830 H   0  0  0  0  0  0  0  0  0  0  0  0
    6.2880   -3.3760    6.5600 S   0  0  0  0  0  0  0  0  0  0  0  0
    7.2570   -2.4020    6.1120 O   0  0  0  0  0  0  0  0  0  0  0  0
    6.6670   -4.5490    7.3240 O   0  0  0  0  0  0  0  0  0  0  0  0
    5.2590   -3.8370    5.2980 N   0  0  0  0  0  0  0  0  0  0  0  0
    4.3430   -2.8100    4.7490 C   0  0  0  0  0  2  0  0  0  0  0  0
    3.8620   -3.3860    3.4180 C   0  0  0  0  0  2  0  0  0  0  0  0
    4.7630   -4.5810    3.1250 C   0  0  0  0  0  2  0  0  0  0  0  0
    5.9350   -4.4460    4.0970 C   0  0  1  0  0  3  0  0  0  0  0  0
    7.0860   -3.6150    3.4560 C   0  0  0  0  0  0  0  0  0  0  0  0
    6.7920   -3.0590    2.3590 O   0  0  0  0  0  0  0  0  0  0  0  0
    8.1640   -3.5620    4.1180 O   0  0  0  0  0  1  0  0  0  0  0  0
  1  2  1  0  0  0  0
  2  3  2  0  0  0  0
  3  4  1  0  0  0  0
  5  3  1  0  0  0  0
  5  6  1  0  0  0  0
  7  5  2  0  0  0  0
  8  1  2  0  0  0  0
  8  7  1  0  0  0  0
 10  9  1  0  0  0  0
 11 10  2  0  0  0  0
 12  1  1  0  0  0  0
 12 10  1  0  0  0  0
 13 12  1  0  0  0  0
 14 16  2  0  0  0  0
 14  8  1  0  0  0  0
 15 14  2  0  0  0  0
 17 14  1  0  0  0  0
 18 17  1  0  0  0  0
 19 18  1  0  0  0  0
 20 19  1  0  0  0  0
 20 21  1  0  0  0  0
 21 22  1  6  0  0  0
 21 17  1  0  0  0  0
 22 24  1  0  0  0  0
 23 22  2  0  0  0  0
M  END
>  <minimizedAffinity>
-1.40103757

$$$$
