
 OpenBabel09122222393D

 19 20  0  0  0  0  0  0  0  0999 V2000
   10.6230   -1.4680   -0.9720 C   0  0  0  0  0  0  0  0  0  0  0  0
   11.2970   -1.5880   -2.1880 C   0  0  0  0  0  3  0  0  0  0  0  0
   11.8320   -0.4580   -2.7990 C   0  0  0  0  0  3  0  0  0  0  0  0
   11.6990    0.7970   -2.1910 C   0  0  0  0  0  3  0  0  0  0  0  0
   11.0390    0.9660   -0.9630 C   0  0  0  0  0  0  0  0  0  0  0  0
   10.5090   -0.1970   -0.3750 C   0  0  0  0  0  3  0  0  0  0  0  0
   10.9130    2.2050   -0.3700 N   0  0  0  0  0  0  0  0  0  0  0  0
   11.8530    3.2950   -0.6100 C   0  0  0  0  0  2  0  0  0  0  0  0
   11.4760    4.3320    0.4480 C   0  0  0  0  0  2  0  0  0  0  0  0
    9.9830    4.1090    0.6330 C   0  0  0  0  0  2  0  0  0  0  0  0
    9.8440    2.5910    0.5330 C   0  0  0  0  0  2  0  0  0  0  0  0
    9.6190   -2.3460    0.9500 C   0  0  0  0  0  2  0  0  0  0  0  0
   10.0190   -2.6730   -0.3070 C   0  0  0  0  0  0  0  0  0  0  0  0
    9.9720   -3.7630   -0.9470 O   0  0  0  0  0  0  0  0  0  0  0  0
    8.9640   -3.1870    2.0210 C   0  0  0  0  0  0  0  0  0  0  0  0
    8.0790   -4.0230    1.8510 O   0  0  0  0  0  0  0  0  0  0  0  0
   10.6510   -2.6080    3.7010 O   0  0  0  0  0  0  0  0  0  0  0  0
    9.4500   -3.0000    3.4970 C   0  0  0  0  0  0  0  0  0  0  0  0
    8.6060   -3.2510    4.4280 O   0  0  0  0  0  1  0  0  0  0  0  0
  1  6  1  0  0  0  0
  1 13  1  0  0  0  0
  2  1  2  0  0  0  0
  3  4  2  0  0  0  0
  3  2  1  0  0  0  0
  4  5  1  0  0  0  0
  5  6  2  0  0  0  0
  5  7  1  0  0  0  0
  7 11  1  0  0  0  0
  8  7  1  0  0  0  0
  8  9  1  0  0  0  0
  9 10  1  0  0  0  0
 11 10  1  0  0  0  0
 12 15  1  0  0  0  0
 13 12  1  0  0  0  0
 14 13  2  0  0  0  0
 15 18  1  0  0  0  0
 16 15  2  0  0  0  0
 18 17  2  0  0  0  0
 18 19  1  0  0  0  0
M  END
>  <minimizedAffinity>
-6.10418844

$$$$
