
 OpenBabel09122222393D

 19 20  0  0  0  0  0  0  0  0999 V2000
   11.9220   -0.0860   -1.8220 C   0  0  0  0  0  0  0  0  0  0  0  0
   12.8250   -0.8310   -2.5820 C   0  0  0  0  0  3  0  0  0  0  0  0
   12.8030   -2.2210   -2.5180 C   0  0  0  0  0  3  0  0  0  0  0  0
   11.8730   -2.8720   -1.6970 C   0  0  0  0  0  3  0  0  0  0  0  0
   10.9370   -2.1650   -0.9230 C   0  0  0  0  0  0  0  0  0  0  0  0
   10.9890   -0.7610   -1.0110 C   0  0  0  0  0  3  0  0  0  0  0  0
   10.0230   -2.8120   -0.1180 N   0  0  0  0  0  0  0  0  0  0  0  0
    9.3630   -2.1630    1.0100 C   0  0  0  0  0  2  0  0  0  0  0  0
    8.6840   -3.3210    1.7400 C   0  0  0  0  0  2  0  0  0  0  0  0
    8.3680   -4.2980    0.6200 C   0  0  0  0  0  2  0  0  0  0  0  0
    9.5870   -4.1860   -0.2940 C   0  0  0  0  0  2  0  0  0  0  0  0
   11.3390    1.9080   -0.7470 C   0  0  0  0  0  2  0  0  0  0  0  0
   11.9440    1.4160   -1.8610 C   0  0  0  0  0  0  0  0  0  0  0  0
   12.4710    1.9930   -2.8540 O   0  0  0  0  0  0  0  0  0  0  0  0
   11.0980    3.3350   -0.3110 C   0  0  0  0  0  0  0  0  0  0  0  0
   10.0060    3.8590   -0.1050 O   0  0  0  0  0  0  0  0  0  0  0  0
   12.2510    5.4970   -0.3550 O   0  0  0  0  0  0  0  0  0  0  0  0
   12.3470    4.2500   -0.0830 C   0  0  0  0  0  0  0  0  0  0  0  0
   13.4070    3.6930    0.3730 O   0  0  0  0  0  1  0  0  0  0  0  0
  1  6  1  0  0  0  0
  2  3  1  0  0  0  0
  2  1  2  0  0  0  0
  3  4  2  0  0  0  0
  4  5  1  0  0  0  0
  5  7  1  0  0  0  0
  6  5  2  0  0  0  0
  7  8  1  0  0  0  0
  8  9  1  0  0  0  0
 10  9  1  0  0  0  0
 11  7  1  0  0  0  0
 11 10  1  0  0  0  0
 12 15  1  0  0  0  0
 13  1  1  0  0  0  0
 13 12  1  0  0  0  0
 14 13  2  0  0  0  0
 15 16  2  0  0  0  0
 15 18  1  0  0  0  0
 17 18  2  0  0  0  0
 18 19  1  0  0  0  0
M  END
>  <minimizedAffinity>
-6.34012699

$$$$
