
 OpenBabel09122222393D

 19 20  0  0  0  0  0  0  0  0999 V2000
    9.4160   -3.2840    0.9350 C   0  0  0  0  0  0  0  0  0  0  0  0
   10.0830   -2.5200    1.8950 C   0  0  0  0  0  3  0  0  0  0  0  0
    9.5340   -2.3670    3.1640 C   0  0  0  0  0  3  0  0  0  0  0  0
    8.3140   -2.9820    3.4790 C   0  0  0  0  0  3  0  0  0  0  0  0
    7.6120   -3.7680    2.5510 C   0  0  0  0  0  0  0  0  0  0  0  0
    8.1970   -3.9000    1.2780 C   0  0  0  0  0  3  0  0  0  0  0  0
    6.4140   -4.3720    2.8690 N   0  0  0  0  0  0  0  0  0  0  0  0
    5.6220   -3.9920    4.0350 C   0  0  0  0  0  2  0  0  0  0  0  0
    4.5670   -5.0940    4.1240 C   0  0  0  0  0  2  0  0  0  0  0  0
    4.3690   -5.5020    2.6740 C   0  0  0  0  0  2  0  0  0  0  0  0
    5.7810   -5.4250    2.0950 C   0  0  0  0  0  2  0  0  0  0  0  0
   10.9490   -2.5100   -0.6530 C   0  0  0  0  0  2  0  0  0  0  0  0
    9.9830   -3.4430   -0.4480 C   0  0  0  0  0  0  0  0  0  0  0  0
    9.5180   -4.3500   -1.1960 O   0  0  0  0  0  0  0  0  0  0  0  0
   11.8140   -2.2430   -1.8630 C   0  0  0  0  0  0  0  0  0  0  0  0
   12.6730   -2.9910   -2.3240 O   0  0  0  0  0  0  0  0  0  0  0  0
   10.4540   -0.6400   -3.1240 O   0  0  0  0  0  0  0  0  0  0  0  0
   11.6060   -0.8920   -2.6270 C   0  0  0  0  0  0  0  0  0  0  0  0
   12.6130   -0.1040   -2.7080 O   0  0  0  0  0  1  0  0  0  0  0  0
  1  6  2  0  0  0  0
  1  2  1  0  0  0  0
  2  3  2  0  0  0  0
  3  4  1  0  0  0  0
  5  7  1  0  0  0  0
  5  4  2  0  0  0  0
  6  5  1  0  0  0  0
  7  8  1  0  0  0  0
  8  9  1  0  0  0  0
 10  9  1  0  0  0  0
 11 10  1  0  0  0  0
 11  7  1  0  0  0  0
 12 13  1  0  0  0  0
 13  1  1  0  0  0  0
 14 13  2  0  0  0  0
 15 12  1  0  0  0  0
 16 15  2  0  0  0  0
 17 18  2  0  0  0  0
 18 15  1  0  0  0  0
 19 18  1  0  0  0  0
M  END
>  <minimizedAffinity>
-6.14320755

$$$$
