
 OpenBabel09122222393D

 19 20  0  0  0  0  0  0  0  0999 V2000
   10.3420    0.1210   -0.6180 C   0  0  0  0  0  0  0  0  0  0  0  0
    9.6120   -0.3190    0.4890 C   0  0  0  0  0  3  0  0  0  0  0  0
    9.2700    0.5780    1.4950 C   0  0  0  0  0  3  0  0  0  0  0  0
    9.6520    1.9230    1.3960 C   0  0  0  0  0  3  0  0  0  0  0  0
   10.3770    2.4140    0.2970 C   0  0  0  0  0  0  0  0  0  0  0  0
   10.7070    1.4780   -0.7000 C   0  0  0  0  0  3  0  0  0  0  0  0
   10.7480    3.7390    0.2060 N   0  0  0  0  0  0  0  0  0  0  0  0
   12.1380    4.1650    0.0850 C   0  0  0  0  0  2  0  0  0  0  0  0
   12.0690    5.6770    0.2980 C   0  0  0  0  0  2  0  0  0  0  0  0
   10.6950    6.0390   -0.2440 C   0  0  0  0  0  2  0  0  0  0  0  0
    9.8270    4.8620    0.1950 C   0  0  0  0  0  2  0  0  0  0  0  0
   11.4840   -1.8430   -1.1730 C   0  0  0  0  0  2  0  0  0  0  0  0
   10.7400   -0.8380   -1.7040 C   0  0  0  0  0  0  0  0  0  0  0  0
   10.3710   -0.6030   -2.8900 O   0  0  0  0  0  0  0  0  0  0  0  0
   12.1250   -3.0440   -1.8310 C   0  0  0  0  0  0  0  0  0  0  0  0
   11.6120   -4.1490   -1.9870 O   0  0  0  0  0  0  0  0  0  0  0  0
   14.5640   -3.1100   -1.5990 O   0  0  0  0  0  1  0  0  0  0  0  0
   13.5800   -2.8830   -2.3850 C   0  0  0  0  0  0  0  0  0  0  0  0
   13.7040   -2.5330   -3.6110 O   0  0  0  0  0  0  0  0  0  0  0  0
  1  2  1  0  0  0  0
  2  3  2  0  0  0  0
  4  3  1  0  0  0  0
  5  4  2  0  0  0  0
  6  1  2  0  0  0  0
  6  5  1  0  0  0  0
  7  5  1  0  0  0  0
  8  7  1  0  0  0  0
  8  9  1  0  0  0  0
 10 11  1  0  0  0  0
 10  9  1  0  0  0  0
 11  7  1  0  0  0  0
 13 12  1  0  0  0  0
 13  1  1  0  0  0  0
 14 13  2  0  0  0  0
 15 12  1  0  0  0  0
 16 15  2  0  0  0  0
 18 15  1  0  0  0  0
 18 17  1  0  0  0  0
 19 18  2  0  0  0  0
M  END
>  <minimizedAffinity>
-6.36721563

$$$$
