
 OpenBabel09122222393D

 19 20  0  0  0  0  0  0  0  0999 V2000
   10.0020   -0.2510    0.0950 C   0  0  0  0  0  0  0  0  0  0  0  0
   10.6010   -0.7570   -1.0610 C   0  0  0  0  0  3  0  0  0  0  0  0
   11.2750    0.1010   -1.9240 C   0  0  0  0  0  3  0  0  0  0  0  0
   11.3580    1.4690   -1.6320 C   0  0  0  0  0  3  0  0  0  0  0  0
   10.7810    2.0220   -0.4760 C   0  0  0  0  0  0  0  0  0  0  0  0
   10.1060    1.1250    0.3730 C   0  0  0  0  0  3  0  0  0  0  0  0
   10.8690    3.3690   -0.1940 N   0  0  0  0  0  0  0  0  0  0  0  0
    9.7090    4.1790    0.1650 C   0  0  0  0  0  2  0  0  0  0  0  0
   10.2410    5.6100    0.1060 C   0  0  0  0  0  2  0  0  0  0  0  0
   11.7040    5.4510    0.4860 C   0  0  0  0  0  2  0  0  0  0  0  0
   12.0990    4.1400   -0.1930 C   0  0  0  0  0  2  0  0  0  0  0  0
    9.3180   -2.4360    0.5730 C   0  0  0  0  0  2  0  0  0  0  0  0
    9.2510   -1.1580    1.0280 C   0  0  0  0  0  0  0  0  0  0  0  0
    8.6820   -0.6550    2.0400 O   0  0  0  0  0  0  0  0  0  0  0  0
    8.7330   -3.7110    1.1360 C   0  0  0  0  0  0  0  0  0  0  0  0
    8.4640   -3.9300    2.3150 O   0  0  0  0  0  0  0  0  0  0  0  0
    8.7540   -4.7360   -1.0900 O   0  0  0  0  0  0  0  0  0  0  0  0
    8.4220   -4.8760    0.1380 C   0  0  0  0  0  0  0  0  0  0  0  0
    7.8480   -5.9180    0.6140 O   0  0  0  0  0  1  0  0  0  0  0  0
  1  6  1  0  0  0  0
  1 13  1  0  0  0  0
  2  1  2  0  0  0  0
  3  4  2  0  0  0  0
  3  2  1  0  0  0  0
  4  5  1  0  0  0  0
  5  7  1  0  0  0  0
  5  6  2  0  0  0  0
  7 11  1  0  0  0  0
  7  8  1  0  0  0  0
  9  8  1  0  0  0  0
  9 10  1  0  0  0  0
 11 10  1  0  0  0  0
 12 13  1  0  0  0  0
 12 15  1  0  0  0  0
 13 14  2  0  0  0  0
 15 16  2  0  0  0  0
 17 18  2  0  0  0  0
 18 19  1  0  0  0  0
 18 15  1  0  0  0  0
M  END
>  <minimizedAffinity>
-6.2524333

$$$$
