
 OpenBabel09122222393D

 19 20  0  0  0  0  0  0  0  0999 V2000
    7.1870   -5.2240    0.0430 C   0  0  0  0  0  0  0  0  0  0  0  0
    6.4980   -6.0370   -0.8590 C   0  0  0  0  0  3  0  0  0  0  0  0
    5.3060   -6.6440   -0.4750 C   0  0  0  0  0  3  0  0  0  0  0  0
    4.7960   -6.4360    0.8130 C   0  0  0  0  0  3  0  0  0  0  0  0
    5.4480   -5.6180    1.7520 C   0  0  0  0  0  0  0  0  0  0  0  0
    6.6500   -5.0220    1.3300 C   0  0  0  0  0  3  0  0  0  0  0  0
    4.9380   -5.4160    3.0170 N   0  0  0  0  0  0  0  0  0  0  0  0
    5.0920   -4.1590    3.7410 C   0  0  0  0  0  2  0  0  0  0  0  0
    4.6280   -4.5020    5.1560 C   0  0  0  0  0  2  0  0  0  0  0  0
    3.5870   -5.5850    4.9250 C   0  0  0  0  0  2  0  0  0  0  0  0
    4.1780   -6.3960    3.7740 C   0  0  0  0  0  2  0  0  0  0  0  0
    8.9410   -3.8170    0.6850 C   0  0  0  0  0  2  0  0  0  0  0  0
    8.4860   -4.5770   -0.3450 C   0  0  0  0  0  0  0  0  0  0  0  0
    8.9550   -4.7950   -1.4990 O   0  0  0  0  0  0  0  0  0  0  0  0
   10.1860   -2.9670    0.8030 C   0  0  0  0  0  0  0  0  0  0  0  0
   11.0760   -3.0920    1.6410 O   0  0  0  0  0  0  0  0  0  0  0  0
    9.9210   -0.6560    0.0300 O   0  0  0  0  0  1  0  0  0  0  0  0
   10.3880   -1.8170   -0.2400 C   0  0  0  0  0  0  0  0  0  0  0  0
   11.0190   -2.1060   -1.3160 O   0  0  0  0  0  0  0  0  0  0  0  0
  1  6  1  0  0  0  0
  2  3  1  0  0  0  0
  2  1  2  0  0  0  0
  3  4  2  0  0  0  0
  4  5  1  0  0  0  0
  5  7  1  0  0  0  0
  6  5  2  0  0  0  0
  7  8  1  0  0  0  0
  7 11  1  0  0  0  0
  8  9  1  0  0  0  0
 10  9  1  0  0  0  0
 11 10  1  0  0  0  0
 12 15  1  0  0  0  0
 13  1  1  0  0  0  0
 13 12  1  0  0  0  0
 14 13  2  0  0  0  0
 15 16  2  0  0  0  0
 18 17  1  0  0  0  0
 18 15  1  0  0  0  0
 19 18  2  0  0  0  0
M  END
>  <minimizedAffinity>
-6.30580235

$$$$
