
 OpenBabel09122222393D

 19 20  0  0  0  0  0  0  0  0999 V2000
    8.3250   -4.3670    0.4870 C   0  0  0  0  0  0  0  0  0  0  0  0
    8.0030   -4.9720   -0.7290 C   0  0  0  0  0  3  0  0  0  0  0  0
    6.8480   -5.7400   -0.8380 C   0  0  0  0  0  3  0  0  0  0  0  0
    6.0060   -5.9020    0.2710 C   0  0  0  0  0  3  0  0  0  0  0  0
    6.2830   -5.3050    1.5120 C   0  0  0  0  0  0  0  0  0  0  0  0
    7.4590   -4.5360    1.5850 C   0  0  0  0  0  3  0  0  0  0  0  0
    5.4490   -5.4670    2.5980 N   0  0  0  0  0  0  0  0  0  0  0  0
    5.2400   -4.4250    3.5980 C   0  0  0  0  0  2  0  0  0  0  0  0
    4.4880   -5.1470    4.7150 C   0  0  0  0  0  2  0  0  0  0  0  0
    3.6980   -6.2100    3.9690 C   0  0  0  0  0  2  0  0  0  0  0  0
    4.6670   -6.6590    2.8760 C   0  0  0  0  0  2  0  0  0  0  0  0
   10.3280   -3.6700   -0.4980 C   0  0  0  0  0  2  0  0  0  0  0  0
    9.5790   -3.5520    0.6290 C   0  0  0  0  0  0  0  0  0  0  0  0
    9.7720   -2.9140    1.7040 O   0  0  0  0  0  0  0  0  0  0  0  0
   11.6640   -3.0610   -0.8570 C   0  0  0  0  0  0  0  0  0  0  0  0
   12.7480   -3.3270   -0.3410 O   0  0  0  0  0  0  0  0  0  0  0  0
   12.7800   -1.8420   -2.6660 O   0  0  0  0  0  0  0  0  0  0  0  0
   11.6980   -1.9930   -2.0000 C   0  0  0  0  0  0  0  0  0  0  0  0
   10.6250   -1.3240   -2.2090 O   0  0  0  0  0  1  0  0  0  0  0  0
  1 13  1  0  0  0  0
  1  6  1  0  0  0  0
  2  1  2  0  0  0  0
  3  2  1  0  0  0  0
  3  4  2  0  0  0  0
  4  5  1  0  0  0  0
  5  6  2  0  0  0  0
  5  7  1  0  0  0  0
  7 11  1  0  0  0  0
  7  8  1  0  0  0  0
  8  9  1  0  0  0  0
 10  9  1  0  0  0  0
 11 10  1  0  0  0  0
 12 13  1  0  0  0  0
 13 14  2  0  0  0  0
 15 12  1  0  0  0  0
 15 16  2  0  0  0  0
 17 18  2  0  0  0  0
 18 15  1  0  0  0  0
 19 18  1  0  0  0  0
M  END
>  <minimizedAffinity>
-6.15963268

$$$$
