
 OpenBabel09122222393D

 19 20  0  0  0  0  0  0  0  0999 V2000
    7.2980   -5.1670    0.1390 C   0  0  0  0  0  0  0  0  0  0  0  0
    6.6820   -5.9560   -0.8330 C   0  0  0  0  0  3  0  0  0  0  0  0
    5.4920   -6.6140   -0.5400 C   0  0  0  0  0  3  0  0  0  0  0  0
    4.9100   -6.4820    0.7280 C   0  0  0  0  0  3  0  0  0  0  0  0
    5.4880   -5.6900    1.7350 C   0  0  0  0  0  0  0  0  0  0  0  0
    6.6910   -5.0400    1.4040 C   0  0  0  0  0  3  0  0  0  0  0  0
    4.9090   -5.5630    2.9800 N   0  0  0  0  0  0  0  0  0  0  0  0
    4.2100   -6.6590    3.6430 C   0  0  0  0  0  2  0  0  0  0  0  0
    3.5200   -5.9790    4.8260 C   0  0  0  0  0  2  0  0  0  0  0  0
    4.4610   -4.8340    5.1630 C   0  0  0  0  0  2  0  0  0  0  0  0
    4.9350   -4.3590    3.7910 C   0  0  0  0  0  2  0  0  0  0  0  0
    8.8520   -3.5600    0.8300 C   0  0  0  0  0  2  0  0  0  0  0  0
    8.5950   -4.4650   -0.1510 C   0  0  0  0  0  0  0  0  0  0  0  0
    9.2330   -4.7720   -1.1990 O   0  0  0  0  0  0  0  0  0  0  0  0
   10.0100   -2.6060    1.0060 C   0  0  0  0  0  0  0  0  0  0  0  0
   11.2000   -2.9080    1.0640 O   0  0  0  0  0  0  0  0  0  0  0  0
    9.3410   -0.6060    2.2550 O   0  0  0  0  0  1  0  0  0  0  0  0
    9.6890   -1.0780    1.1170 C   0  0  0  0  0  0  0  0  0  0  0  0
    9.7960   -0.3770    0.0500 O   0  0  0  0  0  0  0  0  0  0  0  0
  1  6  1  0  0  0  0
  2  3  1  0  0  0  0
  2  1  2  0  0  0  0
  3  4  2  0  0  0  0
  4  5  1  0  0  0  0
  5  7  1  0  0  0  0
  6  5  2  0  0  0  0
  7  8  1  0  0  0  0
  7 11  1  0  0  0  0
  8  9  1  0  0  0  0
  9 10  1  0  0  0  0
 11 10  1  0  0  0  0
 12 15  1  0  0  0  0
 13  1  1  0  0  0  0
 13 12  1  0  0  0  0
 14 13  2  0  0  0  0
 15 16  2  0  0  0  0
 15 18  1  0  0  0  0
 18 17  1  0  0  0  0
 19 18  2  0  0  0  0
M  END
>  <minimizedAffinity>
-6.1863308

$$$$
