
 OpenBabel08162216463D

 26 27  0  0  1  0  0  0  0  0999 V2000
  -11.6070   -3.4030   -7.6120 C   0  0  0  0  0  0  0  0  0  0  0  0
  -12.7780   -4.1740   -7.5980 C   0  0  0  0  0  3  0  0  0  0  0  0
  -12.9690   -5.1290   -8.5840 C   0  0  0  0  0  0  0  0  0  0  0  0
  -14.5290   -6.1940   -8.5770 Br  0  0  0  0  0  0  0  0  0  0  0  0
  -12.0120   -5.3020   -9.5770 C   0  0  0  0  0  3  0  0  0  0  0  0
  -10.8550   -4.5070   -9.5990 C   0  0  0  0  0  3  0  0  0  0  0  0
  -10.6210   -3.5440   -8.6190 C   0  0  0  0  0  0  0  0  0  0  0  0
  -14.0440    0.9510   -9.0250 C   0  0  0  0  0  1  0  0  0  0  0  0
  -13.0090    0.5440   -7.9800 C   0  0  1  0  0  3  0  0  0  0  0  0
  -13.0860    1.4610   -6.7500 C   0  0  0  0  0  2  0  0  0  0  0  0
  -12.0730    1.0250   -5.6830 C   0  0  1  0  0  3  0  0  0  0  0  0
  -12.1780    1.9110   -4.4440 C   0  0  0  0  0  1  0  0  0  0  0  0
  -12.2810   -0.4480   -5.3180 C   0  0  0  0  0  2  0  0  0  0  0  0
  -12.2580   -1.2990   -6.5000 N   0  0  0  0  0  0  0  0  0  0  0  0
  -11.4560   -2.4370   -6.5060 C   0  0  0  0  0  0  0  0  0  0  0  0
  -10.6310   -2.7030   -5.6350 O   0  0  0  0  0  0  0  0  0  0  0  0
  -13.1910   -0.9260   -7.5760 C   0  0  0  0  0  2  0  0  0  0  0  0
   -9.5100   -2.6760   -8.5970 N   0  0  0  0  0  0  0  0  0  0  0  0
   -8.2260   -2.7260   -8.1610 C   0  0  0  0  0  0  0  0  0  0  0  0
   -7.5050   -1.7660   -8.4760 O   0  0  0  0  0  0  0  0  0  0  0  0
   -9.6790   -1.7540   -8.9850 H   0  0  0  0  0  0  0  0  0  0  0  0
   -7.6420   -3.8120   -7.2860 C   0  0  0  0  0  2  0  0  0  0  0  0
   -6.5410   -3.2750   -6.3830 C   0  0  0  0  0  2  0  0  0  0  0  0
   -7.1170   -2.7360   -5.0850 C   0  0  0  0  0  0  0  0  0  0  0  0
   -6.9580   -1.4960   -4.9030 O   0  0  0  0  0  0  0  0  0  0  0  0
   -7.6890   -3.5910   -4.3540 O   0  0  0  0  0  1  0  0  0  0  0  0
  1  2  1  0  0  0  0
  1 15  1  0  0  0  0
  3  4  1  0  0  0  0
  3  2  2  0  0  0  0
  5  3  1  0  0  0  0
  6  5  2  0  0  0  0
  6  7  1  0  0  0  0
  7 18  1  0  0  0  0
  7  1  2  0  0  0  0
  9  8  1  6  0  0  0
  9 17  1  0  0  0  0
  9 10  1  0  0  0  0
 10 11  1  0  0  0  0
 11 13  1  0  0  0  0
 11 12  1  1  0  0  0
 14 13  1  0  0  0  0
 15 14  1  0  0  0  0
 15 16  2  0  0  0  0
 17 14  1  0  0  0  0
 18 19  1  0  0  0  0
 19 22  1  0  0  0  0
 20 19  2  0  0  0  0
 21 18  1  0  0  0  0
 22 23  1  0  0  0  0
 23 24  1  0  0  0  0
 24 25  2  0  0  0  0
 24 26  1  0  0  0  0
M  END
>  <minimizedAffinity>
-6.92471886

$$$$
