
 OpenBabel08162216463D

 26 27  0  0  1  0  0  0  0  0999 V2000
    7.2250    4.1380   31.5370 C   0  0  0  0  0  0  0  0  0  0  0  0
    6.2630    5.1010   31.8740 C   0  0  0  0  0  3  0  0  0  0  0  0
    6.6500    6.2140   32.6030 C   0  0  0  0  0  0  0  0  0  0  0  0
    5.3780    7.5360   33.0530 Br  0  0  0  0  0  0  0  0  0  0  0  0
    7.9730    6.3570   33.0020 C   0  0  0  0  0  3  0  0  0  0  0  0
    8.9240    5.3730   32.6840 C   0  0  0  0  0  3  0  0  0  0  0  0
    8.5770    4.2460   31.9420 C   0  0  0  0  0  0  0  0  0  0  0  0
    6.1340    0.2560   34.7970 C   0  0  0  0  0  1  0  0  0  0  0  0
    6.3810    0.4150   33.3000 C   0  0  1  0  0  3  0  0  0  0  0  0
    5.6430   -0.6730   32.5060 C   0  0  0  0  0  2  0  0  0  0  0  0
    5.8590   -0.4880   30.9980 C   0  0  1  0  0  3  0  0  0  0  0  0
    5.0910   -1.5440   30.2070 C   0  0  0  0  0  1  0  0  0  0  0  0
    5.4430    0.9230   30.5680 C   0  0  0  0  0  2  0  0  0  0  0  0
    6.1110    1.9430   31.3650 N   0  0  0  0  0  0  0  0  0  0  0  0
    6.7450    3.0030   30.7230 C   0  0  0  0  0  0  0  0  0  0  0  0
    6.9230    3.0660   29.5090 O   0  0  0  0  0  0  0  0  0  0  0  0
    5.9650    1.8140   32.8240 C   0  0  0  0  0  2  0  0  0  0  0  0
    9.4600    3.1940   31.6230 N   0  0  0  0  0  0  0  0  0  0  0  0
   10.3640    2.9260   30.6470 C   0  0  0  0  0  0  0  0  0  0  0  0
   11.0670    1.9160   30.8170 O   0  0  0  0  0  0  0  0  0  0  0  0
    9.4300    2.4010   32.2560 H   0  0  0  0  0  0  0  0  0  0  0  0
   10.5280    3.7130   29.3670 C   0  0  0  0  0  2  0  0  0  0  0  0
   11.4510    4.9090   29.5580 C   0  0  0  0  0  2  0  0  0  0  0  0
   12.2220    5.2100   28.2850 C   0  0  0  0  0  0  0  0  0  0  0  0
   12.0030    6.3490   27.7840 O   0  0  0  0  0  0  0  0  0  0  0  0
   12.9910    4.2900   27.8920 O   0  0  0  0  0  1  0  0  0  0  0  0
  1  2  2  0  0  0  0
  1  7  1  0  0  0  0
  2  3  1  0  0  0  0
  3  5  2  0  0  0  0
  3  4  1  0  0  0  0
  6  5  1  0  0  0  0
  7  6  2  0  0  0  0
  9  8  1  1  0  0  0
 10  9  1  0  0  0  0
 11 12  1  6  0  0  0
 11 10  1  0  0  0  0
 13 11  1  0  0  0  0
 13 14  1  0  0  0  0
 14 17  1  0  0  0  0
 15 14  1  0  0  0  0
 15  1  1  0  0  0  0
 16 15  2  0  0  0  0
 17  9  1  0  0  0  0
 18  7  1  0  0  0  0
 18 21  1  0  0  0  0
 19 20  2  0  0  0  0
 19 18  1  0  0  0  0
 22 23  1  0  0  0  0
 22 19  1  0  0  0  0
 24 23  1  0  0  0  0
 25 24  2  0  0  0  0
 26 24  1  0  0  0  0
M  END
>  <minimizedAffinity>
-6.73342085

$$$$
