
 OpenBabel08162216463D

 26 27  0  0  1  0  0  0  0  0999 V2000
    6.5860   -2.0830   31.6770 C   0  0  0  0  0  0  0  0  0  0  0  0
    6.1480   -1.1710   32.6490 C   0  0  0  0  0  3  0  0  0  0  0  0
    4.8950   -0.5940   32.5150 C   0  0  0  0  0  0  0  0  0  0  0  0
    4.2730    0.6230   33.8200 Br  0  0  0  0  0  0  0  0  0  0  0  0
    4.0980   -0.9100   31.4220 C   0  0  0  0  0  3  0  0  0  0  0  0
    4.5560   -1.8040   30.4400 C   0  0  0  0  0  3  0  0  0  0  0  0
    5.8040   -2.4140   30.5440 C   0  0  0  0  0  0  0  0  0  0  0  0
    9.9860    0.4680   28.7070 C   0  0  0  0  0  1  0  0  0  0  0  0
    9.9430   -0.8590   29.4600 C   0  0  1  0  0  3  0  0  0  0  0  0
   11.3540   -1.2970   29.8780 C   0  0  0  0  0  2  0  0  0  0  0  0
   11.3040   -2.6110   30.6700 C   0  0  1  0  0  3  0  0  0  0  0  0
   12.7020   -3.0230   31.1220 C   0  0  0  0  0  1  0  0  0  0  0  0
   10.3620   -2.4750   31.8710 C   0  0  0  0  0  2  0  0  0  0  0  0
    9.0430   -2.0090   31.4650 N   0  0  0  0  0  0  0  0  0  0  0  0
    7.9130   -2.6880   31.9100 C   0  0  0  0  0  0  0  0  0  0  0  0
    7.9440   -3.7630   32.5040 O   0  0  0  0  0  0  0  0  0  0  0  0
    9.0170   -0.7630   30.6810 C   0  0  0  0  0  2  0  0  0  0  0  0
    6.3540   -3.2830   29.5790 N   0  0  0  0  0  0  0  0  0  0  0  0
    6.0980   -4.5330   29.1160 C   0  0  0  0  0  0  0  0  0  0  0  0
    6.7490   -4.8900   28.1210 O   0  0  0  0  0  0  0  0  0  0  0  0
    7.1680   -2.9240   29.0920 H   0  0  0  0  0  0  0  0  0  0  0  0
    5.1460   -5.5220   29.7500 C   0  0  0  0  0  2  0  0  0  0  0  0
    5.6870   -6.0580   31.0670 C   0  0  0  0  0  2  0  0  0  0  0  0
    6.0800   -7.5200   30.9400 C   0  0  0  0  0  0  0  0  0  0  0  0
    6.1530   -7.9530   29.7550 O   0  0  0  0  0  0  0  0  0  0  0  0
    6.2910   -8.1170   32.0310 O   0  0  0  0  0  1  0  0  0  0  0  0
  1 15  1  0  0  0  0
  1  2  1  0  0  0  0
  3  2  2  0  0  0  0
  3  4  1  0  0  0  0
  5  3  1  0  0  0  0
  6  7  1  0  0  0  0
  6  5  2  0  0  0  0
  7  1  2  0  0  0  0
  9  8  1  1  0  0  0
  9 10  1  0  0  0  0
  9 17  1  0  0  0  0
 10 11  1  0  0  0  0
 11 12  1  1  0  0  0
 11 13  1  0  0  0  0
 14 13  1  0  0  0  0
 14 15  1  0  0  0  0
 15 16  2  0  0  0  0
 17 14  1  0  0  0  0
 18  7  1  0  0  0  0
 19 18  1  0  0  0  0
 19 22  1  0  0  0  0
 20 19  2  0  0  0  0
 21 18  1  0  0  0  0
 22 23  1  0  0  0  0
 24 23  1  0  0  0  0
 24 26  1  0  0  0  0
 25 24  2  0  0  0  0
M  END
>  <minimizedAffinity>
-7.11102915

$$$$
