
 OpenBabel08162216463D

 26 27  0  0  1  0  0  0  0  0999 V2000
    8.6820    0.4350   31.4720 C   0  0  0  0  0  0  0  0  0  0  0  0
    9.2850    1.0670   30.3750 C   0  0  0  0  0  3  0  0  0  0  0  0
    9.4910    2.4370   30.4160 C   0  0  0  0  0  0  0  0  0  0  0  0
   10.3190    3.3100   28.9590 Br  0  0  0  0  0  0  0  0  0  0  0  0
    9.0900    3.1670   31.5280 C   0  0  0  0  0  3  0  0  0  0  0  0
    8.4620    2.5290   32.6110 C   0  0  0  0  0  3  0  0  0  0  0  0
    8.2470    1.1530   32.6130 C   0  0  0  0  0  0  0  0  0  0  0  0
    3.8280   -0.5220   29.9190 C   0  0  0  0  0  1  0  0  0  0  0  0
    4.9640   -1.3080   30.5670 C   0  0  1  0  0  3  0  0  0  0  0  0
    4.8690   -2.7990   30.2100 C   0  0  0  0  0  2  0  0  0  0  0  0
    6.0360   -3.5820   30.8290 C   0  0  1  0  0  3  0  0  0  0  0  0
    5.9640   -5.0560   30.4390 C   0  0  0  0  0  1  0  0  0  0  0  0
    7.3750   -2.9700   30.4030 C   0  0  0  0  0  2  0  0  0  0  0  0
    7.4300   -1.5450   30.7000 N   0  0  0  0  0  0  0  0  0  0  0  0
    8.5340   -1.0310   31.3730 C   0  0  0  0  0  0  0  0  0  0  0  0
    9.4130   -1.7210   31.8830 O   0  0  0  0  0  0  0  0  0  0  0  0
    6.3280   -0.7340   30.1560 C   0  0  0  0  0  2  0  0  0  0  0  0
    7.5830    0.4470   33.6380 N   0  0  0  0  0  0  0  0  0  0  0  0
    6.3710    0.4970   34.2460 C   0  0  0  0  0  0  0  0  0  0  0  0
    6.1160   -0.4310   35.0310 O   0  0  0  0  0  0  0  0  0  0  0  0
    8.1280   -0.2900   34.0730 H   0  0  0  0  0  0  0  0  0  0  0  0
    5.3600    1.6090   34.0880 C   0  0  0  0  0  2  0  0  0  0  0  0
    4.2820    1.2490   33.0770 C   0  0  0  0  0  2  0  0  0  0  0  0
    3.0570    0.6740   33.7680 C   0  0  0  0  0  0  0  0  0  0  0  0
    2.4530   -0.2290   33.1230 O   0  0  0  0  0  0  0  0  0  0  0  0
    2.8000    1.1650   34.9010 O   0  0  0  0  0  1  0  0  0  0  0  0
  1  7  1  0  0  0  0
  2  3  1  0  0  0  0
  2  1  2  0  0  0  0
  3  5  2  0  0  0  0
  4  3  1  0  0  0  0
  5  6  1  0  0  0  0
  6  7  2  0  0  0  0
  7 18  1  0  0  0  0
  9  8  1  6  0  0  0
 10  9  1  0  0  0  0
 10 11  1  0  0  0  0
 11 12  1  6  0  0  0
 13 14  1  0  0  0  0
 13 11  1  0  0  0  0
 14 15  1  0  0  0  0
 15  1  1  0  0  0  0
 15 16  2  0  0  0  0
 17  9  1  0  0  0  0
 17 14  1  0  0  0  0
 18 21  1  0  0  0  0
 18 19  1  0  0  0  0
 19 20  2  0  0  0  0
 22 19  1  0  0  0  0
 23 24  1  0  0  0  0
 23 22  1  0  0  0  0
 24 26  1  0  0  0  0
 25 24  2  0  0  0  0
M  END
>  <minimizedAffinity>
-6.95178843

$$$$
