
 OpenBabel08162216463D

 26 27  0  0  1  0  0  0  0  0999 V2000
    8.4180    3.1130   30.7200 C   0  0  0  0  0  0  0  0  0  0  0  0
    9.5760    3.4730   30.0150 C   0  0  0  0  0  3  0  0  0  0  0  0
   10.5880    2.5390   29.8580 C   0  0  0  0  0  0  0  0  0  0  0  0
   12.1500    2.9920   28.8970 Br  0  0  0  0  0  0  0  0  0  0  0  0
   10.4530    1.2700   30.4080 C   0  0  0  0  0  3  0  0  0  0  0  0
    9.3010    0.9280   31.1360 C   0  0  0  0  0  3  0  0  0  0  0  0
    8.2570    1.8340   31.3060 C   0  0  0  0  0  0  0  0  0  0  0  0
    8.9600    5.4730   35.3050 C   0  0  0  0  0  1  0  0  0  0  0  0
    7.8770    5.3540   34.2360 C   0  0  1  0  0  3  0  0  0  0  0  0
    6.9690    6.5920   34.2390 C   0  0  0  0  0  2  0  0  0  0  0  0
    5.9060    6.4890   33.1360 C   0  0  1  0  0  3  0  0  0  0  0  0
    5.0300    7.7390   33.1110 C   0  0  0  0  0  1  0  0  0  0  0  0
    6.5690    6.2620   31.7740 C   0  0  0  0  0  2  0  0  0  0  0  0
    7.4680    5.1160   31.8010 N   0  0  0  0  0  0  0  0  0  0  0  0
    7.3670    4.1470   30.8080 C   0  0  0  0  0  0  0  0  0  0  0  0
    6.4610    4.1000   29.9790 O   0  0  0  0  0  0  0  0  0  0  0  0
    8.5010    5.1370   32.8500 C   0  0  0  0  0  2  0  0  0  0  0  0
    7.0920    1.5830   32.0600 N   0  0  0  0  0  0  0  0  0  0  0  0
    5.8690    1.0410   31.8360 C   0  0  0  0  0  0  0  0  0  0  0  0
    5.1580    0.8640   32.8390 O   0  0  0  0  0  0  0  0  0  0  0  0
    7.1330    1.8900   33.0270 H   0  0  0  0  0  0  0  0  0  0  0  0
    5.2980    0.7030   30.4770 C   0  0  0  0  0  2  0  0  0  0  0  0
    5.7070   -0.6920   30.0270 C   0  0  0  0  0  2  0  0  0  0  0  0
    4.7100   -1.7330   30.5060 C   0  0  0  0  0  0  0  0  0  0  0  0
    5.1830   -2.6060   31.2870 O   0  0  0  0  0  1  0  0  0  0  0  0
    3.5340   -1.5920   30.0700 O   0  0  0  0  0  0  0  0  0  0  0  0
  1 15  1  0  0  0  0
  1  7  1  0  0  0  0
  2  1  2  0  0  0  0
  3  2  1  0  0  0  0
  3  5  2  0  0  0  0
  4  3  1  0  0  0  0
  5  6  1  0  0  0  0
  6  7  2  0  0  0  0
  7 18  1  0  0  0  0
  9 10  1  0  0  0  0
  9  8  1  1  0  0  0
 11 12  1  6  0  0  0
 11 10  1  0  0  0  0
 13 14  1  0  0  0  0
 13 11  1  0  0  0  0
 14 17  1  0  0  0  0
 15 14  1  0  0  0  0
 16 15  2  0  0  0  0
 17  9  1  0  0  0  0
 18 21  1  0  0  0  0
 19 18  1  0  0  0  0
 19 20  2  0  0  0  0
 22 19  1  0  0  0  0
 23 22  1  0  0  0  0
 23 24  1  0  0  0  0
 24 25  1  0  0  0  0
 26 24  2  0  0  0  0
M  END
>  <minimizedAffinity>
-6.87540579

$$$$
