
 OpenBabel08162216463D

 26 27  0  0  1  0  0  0  0  0999 V2000
   19.3110   -9.1130   85.8720 C   0  0  0  0  0  0  0  0  0  0  0  0
   19.7530   -9.3340   84.5600 C   0  0  0  0  0  3  0  0  0  0  0  0
   20.3170   -8.2850   83.8520 C   0  0  0  0  0  0  0  0  0  0  0  0
   20.9380   -8.5600   82.0890 Br  0  0  0  0  0  0  0  0  0  0  0  0
   20.4260   -7.0300   84.4400 C   0  0  0  0  0  3  0  0  0  0  0  0
   19.9560   -6.8110   85.7460 C   0  0  0  0  0  3  0  0  0  0  0  0
   19.3930   -7.8440   86.4930 C   0  0  0  0  0  0  0  0  0  0  0  0
   14.2180   -9.2430   84.9050 C   0  0  0  0  0  1  0  0  0  0  0  0
   15.1750   -9.8680   85.9170 C   0  0  1  0  0  3  0  0  0  0  0  0
   14.6340  -11.2150   86.4200 C   0  0  0  0  0  2  0  0  0  0  0  0
   15.6170  -11.8620   87.4060 C   0  0  1  0  0  3  0  0  0  0  0  0
   15.0990  -13.2200   87.8730 C   0  0  0  0  0  1  0  0  0  0  0  0
   17.0030  -11.9980   86.7670 C   0  0  0  0  0  2  0  0  0  0  0  0
   17.4800  -10.7230   86.2480 N   0  0  0  0  0  0  0  0  0  0  0  0
   18.7610  -10.2890   86.5760 C   0  0  0  0  0  0  0  0  0  0  0  0
   19.4800  -10.8330   87.4100 O   0  0  0  0  0  0  0  0  0  0  0  0
   16.5760  -10.0340   85.3110 C   0  0  0  0  0  2  0  0  0  0  0  0
   18.8570   -7.6940   87.7890 N   0  0  0  0  0  0  0  0  0  0  0  0
   17.6310   -7.4780   88.3310 C   0  0  0  0  0  0  0  0  0  0  0  0
   17.5610   -7.5600   89.5690 O   0  0  0  0  0  0  0  0  0  0  0  0
   19.5360   -7.7350   88.5420 H   0  0  0  0  0  0  0  0  0  0  0  0
   16.3900   -7.0920   87.5600 C   0  0  0  0  0  2  0  0  0  0  0  0
   16.5630   -5.7580   86.8480 C   0  0  0  0  0  2  0  0  0  0  0  0
   15.4210   -5.5050   85.8790 C   0  0  0  0  0  0  0  0  0  0  0  0
   15.7580   -5.4310   84.6640 O   0  0  0  0  0  0  0  0  0  0  0  0
   14.2790   -5.4100   86.4080 O   0  0  0  0  0  1  0  0  0  0  0  0
  1  7  1  0  0  0  0
  1 15  1  0  0  0  0
  2  1  2  0  0  0  0
  3  5  2  0  0  0  0
  3  2  1  0  0  0  0
  4  3  1  0  0  0  0
  5  6  1  0  0  0  0
  6  7  2  0  0  0  0
  7 18  1  0  0  0  0
  9  8  1  6  0  0  0
  9 10  1  0  0  0  0
 10 11  1  0  0  0  0
 11 12  1  6  0  0  0
 13 11  1  0  0  0  0
 14 15  1  0  0  0  0
 14 13  1  0  0  0  0
 15 16  2  0  0  0  0
 17  9  1  0  0  0  0
 17 14  1  0  0  0  0
 18 19  1  0  0  0  0
 18 21  1  0  0  0  0
 19 20  2  0  0  0  0
 22 19  1  0  0  0  0
 23 22  1  0  0  0  0
 24 26  1  0  0  0  0
 24 23  1  0  0  0  0
 25 24  2  0  0  0  0
M  END
>  <minimizedAffinity>
-6.85202932

$$$$
