
 OpenBabel08162216463D

 26 27  0  0  1  0  0  0  0  0999 V2000
   19.2380   -8.9260   85.6010 C   0  0  0  0  0  0  0  0  0  0  0  0
   19.8710   -9.2450   84.3910 C   0  0  0  0  0  3  0  0  0  0  0  0
   20.3420   -8.2200   83.5860 C   0  0  0  0  0  0  0  0  0  0  0  0
   21.2150   -8.6230   81.9590 Br  0  0  0  0  0  0  0  0  0  0  0  0
   20.1710   -6.8970   83.9750 C   0  0  0  0  0  3  0  0  0  0  0  0
   19.5120   -6.5870   85.1750 C   0  0  0  0  0  3  0  0  0  0  0  0
   19.0350   -7.5890   86.0180 C   0  0  0  0  0  0  0  0  0  0  0  0
   14.1390   -9.5060   84.8600 C   0  0  0  0  0  1  0  0  0  0  0  0
   15.1750   -9.9700   85.8800 C   0  0  1  0  0  3  0  0  0  0  0  0
   14.7540  -11.3020   86.5180 C   0  0  0  0  0  2  0  0  0  0  0  0
   15.8170  -11.7870   87.5140 C   0  0  1  0  0  3  0  0  0  0  0  0
   15.4190  -13.1320   88.1160 C   0  0  0  0  0  1  0  0  0  0  0  0
   17.1860  -11.8790   86.8320 C   0  0  0  0  0  2  0  0  0  0  0  0
   17.5470  -10.6240   86.1870 N   0  0  0  0  0  0  0  0  0  0  0  0
   18.8030  -10.0720   86.4240 C   0  0  0  0  0  0  0  0  0  0  0  0
   19.5890  -10.4880   87.2720 O   0  0  0  0  0  0  0  0  0  0  0  0
   16.5620  -10.0870   85.2340 C   0  0  0  0  0  2  0  0  0  0  0  0
   18.3230   -7.3590   87.2140 N   0  0  0  0  0  0  0  0  0  0  0  0
   18.3460   -6.4440   88.2160 C   0  0  0  0  0  0  0  0  0  0  0  0
   17.4210   -6.5160   89.0410 O   0  0  0  0  0  0  0  0  0  0  0  0
   17.6070   -8.0460   87.4260 H   0  0  0  0  0  0  0  0  0  0  0  0
   19.4270   -5.4100   88.4300 C   0  0  0  0  0  2  0  0  0  0  0  0
   20.0750   -5.5500   89.8000 C   0  0  0  0  0  2  0  0  0  0  0  0
   20.9190   -6.8110   89.8770 C   0  0  0  0  0  0  0  0  0  0  0  0
   20.4890   -7.6940   90.6730 O   0  0  0  0  0  1  0  0  0  0  0  0
   21.9370   -6.8230   89.1330 O   0  0  0  0  0  0  0  0  0  0  0  0
  1  7  1  0  0  0  0
  1 15  1  0  0  0  0
  2  1  2  0  0  0  0
  3  5  2  0  0  0  0
  3  2  1  0  0  0  0
  4  3  1  0  0  0  0
  5  6  1  0  0  0  0
  6  7  2  0  0  0  0
  7 18  1  0  0  0  0
  9  8  1  6  0  0  0
  9 10  1  0  0  0  0
 10 11  1  0  0  0  0
 11 12  1  6  0  0  0
 13 11  1  0  0  0  0
 14 15  1  0  0  0  0
 14 13  1  0  0  0  0
 15 16  2  0  0  0  0
 17  9  1  0  0  0  0
 17 14  1  0  0  0  0
 18 21  1  0  0  0  0
 18 19  1  0  0  0  0
 19 22  1  0  0  0  0
 19 20  2  0  0  0  0
 22 23  1  0  0  0  0
 23 24  1  0  0  0  0
 24 25  1  0  0  0  0
 26 24  2  0  0  0  0
M  END
>  <minimizedAffinity>
-6.92724037

$$$$
