
 OpenBabel08162216463D

 26 27  0  0  1  0  0  0  0  0999 V2000
    6.6380    1.6820   31.6670 C   0  0  0  0  0  0  0  0  0  0  0  0
    5.5760    0.8510   31.2800 C   0  0  0  0  0  3  0  0  0  0  0  0
    4.5380    0.6240   32.1700 C   0  0  0  0  0  0  0  0  0  0  0  0
    3.0860   -0.4750   31.6660 Br  0  0  0  0  0  0  0  0  0  0  0  0
    4.5660    1.2050   33.4320 C   0  0  0  0  0  3  0  0  0  0  0  0
    5.6470    2.0130   33.8210 C   0  0  0  0  0  3  0  0  0  0  0  0
    6.7040    2.2740   32.9510 C   0  0  0  0  0  0  0  0  0  0  0  0
   10.5110   -1.6150   32.6730 C   0  0  0  0  0  1  0  0  0  0  0  0
   10.3200   -0.3400   31.8580 C   0  0  1  0  0  3  0  0  0  0  0  0
   11.2930   -0.2990   30.6710 C   0  0  0  0  0  2  0  0  0  0  0  0
   11.0710    0.9650   29.8290 C   0  0  1  0  0  3  0  0  0  0  0  0
   12.0100    0.9850   28.6250 C   0  0  0  0  0  1  0  0  0  0  0  0
    9.6090    1.0590   29.3800 C   0  0  0  0  0  2  0  0  0  0  0  0
    8.6960    0.9660   30.5120 N   0  0  0  0  0  0  0  0  0  0  0  0
    7.6840    1.9100   30.6500 C   0  0  0  0  0  0  0  0  0  0  0  0
    7.5910    2.9260   29.9660 O   0  0  0  0  0  0  0  0  0  0  0  0
    8.8670   -0.2130   31.3780 C   0  0  0  0  0  2  0  0  0  0  0  0
    7.8450    3.0350   33.2820 N   0  0  0  0  0  0  0  0  0  0  0  0
    8.1000    4.2040   33.9220 C   0  0  0  0  0  0  0  0  0  0  0  0
    9.2970    4.4560   34.1390 O   0  0  0  0  0  0  0  0  0  0  0  0
    8.7260    2.6490   32.9590 H   0  0  0  0  0  0  0  0  0  0  0  0
    7.0620    5.2260   34.3230 C   0  0  0  0  0  2  0  0  0  0  0  0
    7.2330    6.5300   33.5570 C   0  0  0  0  0  2  0  0  0  0  0  0
    6.3800    6.5400   32.3000 C   0  0  0  0  0  0  0  0  0  0  0  0
    5.9910    5.4030   31.9100 O   0  0  0  0  0  1  0  0  0  0  0  0
    6.1620    7.6810   31.8070 O   0  0  0  0  0  0  0  0  0  0  0  0
  1  7  1  0  0  0  0
  2  1  2  0  0  0  0
  2  3  1  0  0  0  0
  3  5  2  0  0  0  0
  4  3  1  0  0  0  0
  5  6  1  0  0  0  0
  7 18  1  0  0  0  0
  7  6  2  0  0  0  0
  9  8  1  6  0  0  0
 10  9  1  0  0  0  0
 11 12  1  6  0  0  0
 11 10  1  0  0  0  0
 13 11  1  0  0  0  0
 13 14  1  0  0  0  0
 14 15  1  0  0  0  0
 14 17  1  0  0  0  0
 15  1  1  0  0  0  0
 16 15  2  0  0  0  0
 17  9  1  0  0  0  0
 18 19  1  0  0  0  0
 19 20  2  0  0  0  0
 19 22  1  0  0  0  0
 21 18  1  0  0  0  0
 23 22  1  0  0  0  0
 24 23  1  0  0  0  0
 25 24  1  0  0  0  0
 26 24  2  0  0  0  0
M  END
>  <minimizedAffinity>
-6.82136202

$$$$
