
 OpenBabel08162216463D

 26 27  0  0  1  0  0  0  0  0999 V2000
  -10.6640   -2.9900   -5.8290 C   0  0  0  0  0  0  0  0  0  0  0  0
   -9.5740   -3.6790   -5.2790 C   0  0  0  0  0  3  0  0  0  0  0  0
   -8.2900   -3.2340   -5.5460 C   0  0  0  0  0  0  0  0  0  0  0  0
   -6.8040   -4.1330   -4.8020 Br  0  0  0  0  0  0  0  0  0  0  0  0
   -8.0950   -2.1260   -6.3630 C   0  0  0  0  0  3  0  0  0  0  0  0
   -9.1910   -1.4590   -6.9320 C   0  0  0  0  0  3  0  0  0  0  0  0
  -10.4980   -1.8680   -6.6780 C   0  0  0  0  0  0  0  0  0  0  0  0
  -12.5450   -5.4870   -9.9660 C   0  0  0  0  0  1  0  0  0  0  0  0
  -13.1030   -4.9010   -8.6720 C   0  0  1  0  0  3  0  0  0  0  0  0
  -14.3680   -5.6510   -8.2340 C   0  0  0  0  0  2  0  0  0  0  0  0
  -14.9040   -5.0880   -6.9100 C   0  0  1  0  0  3  0  0  0  0  0  0
  -16.1380   -5.8620   -6.4530 C   0  0  0  0  0  1  0  0  0  0  0  0
  -13.8130   -5.1190   -5.8350 C   0  0  0  0  0  2  0  0  0  0  0  0
  -12.6000   -4.4480   -6.2860 N   0  0  0  0  0  0  0  0  0  0  0  0
  -12.0020   -3.4980   -5.4640 C   0  0  0  0  0  0  0  0  0  0  0  0
  -12.5100   -3.0580   -4.4360 O   0  0  0  0  0  0  0  0  0  0  0  0
  -12.0420   -4.9240   -7.5620 C   0  0  0  0  0  2  0  0  0  0  0  0
  -11.6480   -1.2810   -7.2470 N   0  0  0  0  0  0  0  0  0  0  0  0
  -12.5460   -0.3270   -6.8950 C   0  0  0  0  0  0  0  0  0  0  0  0
  -13.3550    0.0110   -7.7750 O   0  0  0  0  0  0  0  0  0  0  0  0
  -11.9170   -1.6550   -8.1510 H   0  0  0  0  0  0  0  0  0  0  0  0
  -12.6710    0.2930   -5.5220 C   0  0  0  0  0  2  0  0  0  0  0  0
  -11.9380    1.6240   -5.4390 C   0  0  0  0  0  2  0  0  0  0  0  0
  -12.3280    2.3830   -4.1820 C   0  0  0  0  0  0  0  0  0  0  0  0
  -12.3980    1.6810   -3.1340 O   0  0  0  0  0  1  0  0  0  0  0  0
  -12.5260    3.6190   -4.3400 O   0  0  0  0  0  0  0  0  0  0  0  0
  1 15  1  0  0  0  0
  1  2  1  0  0  0  0
  3  2  2  0  0  0  0
  3  4  1  0  0  0  0
  5  3  1  0  0  0  0
  6  7  1  0  0  0  0
  6  5  2  0  0  0  0
  7  1  2  0  0  0  0
  9  8  1  6  0  0  0
  9 10  1  0  0  0  0
  9 17  1  0  0  0  0
 10 11  1  0  0  0  0
 11 12  1  1  0  0  0
 11 13  1  0  0  0  0
 14 13  1  0  0  0  0
 14 15  1  0  0  0  0
 15 16  2  0  0  0  0
 17 14  1  0  0  0  0
 18 19  1  0  0  0  0
 18  7  1  0  0  0  0
 19 22  1  0  0  0  0
 20 19  2  0  0  0  0
 21 18  1  0  0  0  0
 22 23  1  0  0  0  0
 23 24  1  0  0  0  0
 24 25  1  0  0  0  0
 26 24  2  0  0  0  0
M  END
>  <minimizedAffinity>
-7.07870913

$$$$
