
 OpenBabel09122222393D

 30 32  0  0  0  0  0  0  0  0999 V2000
    5.1320   -7.1420    1.0870 C   0  0  0  0  0  0  0  0  0  0  0  0
    4.0560   -7.7210    1.4860 N   0  0  0  0  0  0  0  0  0  0  0  0
    4.1800   -8.7810    2.3490 C   0  0  0  0  0  0  0  0  0  0  0  0
    5.3590   -9.2700    2.7740 C   0  0  0  0  0  0  0  0  0  0  0  0
    6.5830   -8.6040    2.2830 C   0  0  0  0  0  0  0  0  0  0  0  0
    7.7090   -8.9710    2.5950 O   0  0  0  0  0  0  0  0  0  0  0  0
    6.3790   -7.5420    1.4460 N   0  0  0  0  0  0  0  0  0  0  0  0
    7.1850   -7.0570    1.0820 H   0  0  0  0  0  0  0  0  0  0  0  0
    2.8950   -9.3710    2.7830 C   0  0  0  0  0  0  0  0  0  0  0  0
    2.2730   -8.8440    3.9270 C   0  0  0  0  0  3  0  0  0  0  0  0
    1.0780   -9.3900    4.3980 C   0  0  0  0  0  3  0  0  0  0  0  0
    0.5010  -10.4690    3.7330 C   0  0  0  0  0  0  0  0  0  0  0  0
   -0.9600  -11.1540    4.3300 Cl  0  0  0  0  0  0  0  0  0  0  0  0
    1.1050  -11.0100    2.6010 C   0  0  0  0  0  3  0  0  0  0  0  0
    2.3020  -10.4660    2.1300 C   0  0  0  0  0  0  0  0  0  0  0  0
    3.0290  -11.1940    0.7390 Cl  0  0  0  0  0  0  0  0  0  0  0  0
    5.4730  -10.4590    3.7130 C   0  0  0  0  0  2  0  0  0  0  0  0
    5.5680  -11.4470    4.4920 N   0  0  0  0  0  1  0  0  0  0  0  0
    5.1190   -5.7930    0.0040 S   0  0  0  0  0  0  0  0  0  0  0  0
    6.8170   -5.8560   -0.6470 C   0  0  0  0  0  2  0  0  0  0  0  0
    8.6540   -3.6770    1.9070 C   0  0  0  0  0  0  0  0  0  0  0  0
    7.7240   -4.5530    1.3350 C   0  0  0  0  0  3  0  0  0  0  0  0
    7.7900   -4.8880   -0.0230 C   0  0  0  0  0  0  0  0  0  0  0  0
    8.7930   -4.2950   -0.8070 C   0  0  0  0  0  3  0  0  0  0  0  0
    9.7270   -3.4180   -0.2490 C   0  0  0  0  0  0  0  0  0  0  0  0
    9.6540   -3.1090    1.1110 C   0  0  0  0  0  3  0  0  0  0  0  0
    9.5190   -2.7850    3.9370 C   0  0  0  0  0  1  0  0  0  0  0  0
    8.4760   -3.4600    3.2470 O   0  0  0  0  0  0  0  0  0  0  0  0
   10.6540   -2.9430   -1.1360 O   0  0  0  0  0  0  0  0  0  0  0  0
   10.7670   -1.5300   -1.2620 C   0  0  0  0  0  1  0  0  0  0  0  0
  1  7  1  0  0  0  0
  1  2  2  0  0  0  0
  2  3  1  0  0  0  0
  3  4  2  0  0  0  0
  3  9  1  0  0  0  0
  4 17  1  0  0  0  0
  5  6  2  0  0  0  0
  5  4  1  0  0  0  0
  7  5  1  0  0  0  0
  8  7  1  0  0  0  0
  9 10  1  0  0  0  0
 10 11  2  0  0  0  0
 12 13  1  0  0  0  0
 12 11  1  0  0  0  0
 14 12  2  0  0  0  0
 15 14  1  0  0  0  0
 15  9  2  0  0  0  0
 16 15  1  0  0  0  0
 17 18  1  0  0  0  0
 19  1  1  0  0  0  0
 20 23  1  0  0  0  0
 20 19  1  0  0  0  0
 21 28  1  0  0  0  0
 22 21  1  0  0  0  0
 23 22  2  0  0  0  0
 24 25  2  0  0  0  0
 24 23  1  0  0  0  0
 25 26  1  0  0  0  0
 26 21  2  0  0  0  0
 28 27  1  0  0  0  0
 29 25  1  0  0  0  0
 30 29  1  0  0  0  0
M  END
>  <minimizedAffinity>
-7.09273243

$$$$
