
 OpenBabel09122222393D

 30 32  0  0  0  0  0  0  0  0999 V2000
    7.3870   -4.7850    1.8170 C   0  0  0  0  0  0  0  0  0  0  0  0
    7.8060   -3.6980    2.3610 N   0  0  0  0  0  0  0  0  0  0  0  0
    8.6720   -2.9130    1.6410 C   0  0  0  0  0  0  0  0  0  0  0  0
    9.1310   -3.2300    0.4170 C   0  0  0  0  0  0  0  0  0  0  0  0
    8.6550   -4.4950   -0.1780 C   0  0  0  0  0  0  0  0  0  0  0  0
    9.0150   -4.8870   -1.2810 O   0  0  0  0  0  0  0  0  0  0  0  0
    7.7770   -5.2110    0.5880 N   0  0  0  0  0  0  0  0  0  0  0  0
    7.4260   -6.0840    0.2260 H   0  0  0  0  0  0  0  0  0  0  0  0
    9.0830   -1.6680    2.3250 C   0  0  0  0  0  0  0  0  0  0  0  0
    8.9340   -0.4520    1.6390 C   0  0  0  0  0  3  0  0  0  0  0  0
    9.3410    0.7470    2.2270 C   0  0  0  0  0  3  0  0  0  0  0  0
    9.9050    0.7360    3.5010 C   0  0  0  0  0  0  0  0  0  0  0  0
   10.4260    2.2130    4.2130 Cl  0  0  0  0  0  0  0  0  0  0  0  0
   10.0670   -0.4600    4.1950 C   0  0  0  0  0  3  0  0  0  0  0  0
    9.6620   -1.6600    3.6060 C   0  0  0  0  0  0  0  0  0  0  0  0
    9.9130   -3.1230    4.4960 Cl  0  0  0  0  0  0  0  0  0  0  0  0
   10.1070   -2.3550   -0.3530 C   0  0  0  0  0  2  0  0  0  0  0  0
   10.9170   -1.6300   -0.9930 N   0  0  0  0  0  1  0  0  0  0  0  0
    6.2910   -5.8630    2.6110 S   0  0  0  0  0  0  0  0  0  0  0  0
    5.9990   -7.0880    1.2980 C   0  0  0  0  0  2  0  0  0  0  0  0
    3.4700   -9.9590    1.3850 C   0  0  0  0  0  0  0  0  0  0  0  0
    4.1380   -8.7910    1.0010 C   0  0  0  0  0  3  0  0  0  0  0  0
    5.2470   -8.3260    1.7180 C   0  0  0  0  0  0  0  0  0  0  0  0
    5.6540   -9.0430    2.8550 C   0  0  0  0  0  3  0  0  0  0  0  0
    4.9950  -10.2110    3.2500 C   0  0  0  0  0  0  0  0  0  0  0  0
    3.9000  -10.6670    2.5120 C   0  0  0  0  0  3  0  0  0  0  0  0
    2.4320  -11.6040    0.0130 C   0  0  0  0  0  1  0  0  0  0  0  0
    2.4180  -10.3000    0.5780 O   0  0  0  0  0  0  0  0  0  0  0  0
    5.5230  -10.8080    4.3620 O   0  0  0  0  0  0  0  0  0  0  0  0
    5.3350  -12.2110    4.4970 C   0  0  0  0  0  1  0  0  0  0  0  0
  1  2  2  0  0  0  0
  1 19  1  0  0  0  0
  3  9  1  0  0  0  0
  3  2  1  0  0  0  0
  4  3  2  0  0  0  0
  5  4  1  0  0  0  0
  5  7  1  0  0  0  0
  6  5  2  0  0  0  0
  7  1  1  0  0  0  0
  8  7  1  0  0  0  0
  9 15  1  0  0  0  0
 10 11  1  0  0  0  0
 10  9  2  0  0  0  0
 11 12  2  0  0  0  0
 12 14  1  0  0  0  0
 12 13  1  0  0  0  0
 15 14  2  0  0  0  0
 15 16  1  0  0  0  0
 17  4  1  0  0  0  0
 18 17  1  0  0  0  0
 20 23  1  0  0  0  0
 20 19  1  0  0  0  0
 21 26  1  0  0  0  0
 22 21  2  0  0  0  0
 22 23  1  0  0  0  0
 23 24  2  0  0  0  0
 24 25  1  0  0  0  0
 25 29  1  0  0  0  0
 26 25  2  0  0  0  0
 27 28  1  0  0  0  0
 28 21  1  0  0  0  0
 29 30  1  0  0  0  0
M  END
>  <minimizedAffinity>
-6.11089182

$$$$
