
 OpenBabel09122218253D

 30 32  0  0  0  0  0  0  0  0999 V2000
    8.4340   -3.9320    1.8280 C   0  0  0  0  0  0  0  0  0  0  0  0
    7.4770   -4.5680    2.4050 N   0  0  0  0  0  0  0  0  0  0  0  0
    6.7440   -5.4480    1.6470 C   0  0  0  0  0  0  0  0  0  0  0  0
    6.9470   -5.6570    0.3330 C   0  0  0  0  0  0  0  0  0  0  0  0
    8.0360   -4.8970   -0.3120 C   0  0  0  0  0  0  0  0  0  0  0  0
    8.3030   -5.0000   -1.5030 O   0  0  0  0  0  0  0  0  0  0  0  0
    8.7370   -4.0590    0.5110 N   0  0  0  0  0  0  0  0  0  0  0  0
    9.4880   -3.5160    0.1150 H   0  0  0  0  0  0  0  0  0  0  0  0
    5.6820   -6.1600    2.3900 C   0  0  0  0  0  0  0  0  0  0  0  0
    5.7270   -7.5630    2.4340 C   0  0  0  0  0  3  0  0  0  0  0  0
    4.7280   -8.2830    3.0910 C   0  0  0  0  0  3  0  0  0  0  0  0
    3.6760   -7.6050    3.7040 C   0  0  0  0  0  0  0  0  0  0  0  0
    2.4360   -8.4970    4.4950 Cl  0  0  0  0  0  0  0  0  0  0  0  0
    3.6100   -6.2150    3.6670 C   0  0  0  0  0  3  0  0  0  0  0  0
    4.6090   -5.4940    3.0070 C   0  0  0  0  0  0  0  0  0  0  0  0
    4.4650   -3.7700    2.9620 Cl  0  0  0  0  0  0  0  0  0  0  0  0
    6.1080   -6.6200   -0.4910 C   0  0  0  0  0  2  0  0  0  0  0  0
    5.4110   -7.4190   -1.1750 N   0  0  0  0  0  1  0  0  0  0  0  0
    9.4380   -2.7990    2.6670 S   0  0  0  0  0  0  0  0  0  0  0  0
    8.5870   -1.2360    2.2860 C   0  0  0  0  0  2  0  0  0  0  0  0
   10.1030    1.8790    0.6610 C   0  0  0  0  0  0  0  0  0  0  0  0
    9.4100    1.0510    1.5520 C   0  0  0  0  0  3  0  0  0  0  0  0
    9.3010   -0.3250    1.3200 C   0  0  0  0  0  0  0  0  0  0  0  0
    9.8750   -0.8510    0.1510 C   0  0  0  0  0  3  0  0  0  0  0  0
   10.5680   -0.0350   -0.7480 C   0  0  0  0  0  0  0  0  0  0  0  0
   10.6800    1.3330   -0.4900 C   0  0  0  0  0  3  0  0  0  0  0  0
    9.7080    4.1510    0.0690 C   0  0  0  0  0  1  0  0  0  0  0  0
   10.1430    3.1980    1.0300 O   0  0  0  0  0  0  0  0  0  0  0  0
   11.0890   -0.6980   -1.8250 O   0  0  0  0  0  0  0  0  0  0  0  0
   10.9910   -0.0570   -3.0910 C   0  0  0  0  0  1  0  0  0  0  0  0
  1  2  2  0  0  0  0
  1 19  1  0  0  0  0
  3  9  1  0  0  0  0
  3  2  1  0  0  0  0
  4  3  2  0  0  0  0
  5  4  1  0  0  0  0
  5  7  1  0  0  0  0
  6  5  2  0  0  0  0
  7  1  1  0  0  0  0
  8  7  1  0  0  0  0
  9 10  2  0  0  0  0
  9 15  1  0  0  0  0
 10 11  1  0  0  0  0
 11 12  2  0  0  0  0
 12 13  1  0  0  0  0
 14 12  1  0  0  0  0
 15 14  2  0  0  0  0
 16 15  1  0  0  0  0
 17  4  1  0  0  0  0
 18 17  1  0  0  0  0
 20 19  1  0  0  0  0
 21 28  1  0  0  0  0
 21 22  1  0  0  0  0
 23 22  2  0  0  0  0
 23 20  1  0  0  0  0
 24 23  1  0  0  0  0
 25 26  1  0  0  0  0
 25 24  2  0  0  0  0
 26 21  2  0  0  0  0
 27 28  1  0  0  0  0
 29 25  1  0  0  0  0
 30 29  1  0  0  0  0
M  END
>  <minimizedAffinity>
-7.8934741

$$$$

 OpenBabel09122218253D

 30 32  0  0  0  0  0  0  0  0999 V2000
    6.4230   -5.9710    1.6590 C   0  0  0  0  0  0  0  0  0  0  0  0
    6.1990   -7.2340    1.7530 N   0  0  0  0  0  0  0  0  0  0  0  0
    5.0870   -7.6370    2.4490 C   0  0  0  0  0  0  0  0  0  0  0  0
    4.2380   -6.7930    3.0640 C   0  0  0  0  0  0  0  0  0  0  0  0
    4.5300   -5.3480    2.9610 C   0  0  0  0  0  0  0  0  0  0  0  0
    3.8320   -4.4910    3.4900 O   0  0  0  0  0  0  0  0  0  0  0  0
    5.6410   -5.0230    2.2330 N   0  0  0  0  0  0  0  0  0  0  0  0
    5.8820   -4.0480    2.1380 H   0  0  0  0  0  0  0  0  0  0  0  0
    4.8850   -9.1010    2.4870 C   0  0  0  0  0  0  0  0  0  0  0  0
    5.6910   -9.8620    3.3480 C   0  0  0  0  0  3  0  0  0  0  0  0
    5.5650  -11.2520    3.3930 C   0  0  0  0  0  3  0  0  0  0  0  0
    4.6350  -11.8890    2.5740 C   0  0  0  0  0  0  0  0  0  0  0  0
    4.4970  -13.6030    2.6170 Cl  0  0  0  0  0  0  0  0  0  0  0  0
    3.8300  -11.1530    1.7090 C   0  0  0  0  0  3  0  0  0  0  0  0
    3.9580   -9.7620    1.6610 C   0  0  0  0  0  0  0  0  0  0  0  0
    2.9570   -8.8960    0.5470 Cl  0  0  0  0  0  0  0  0  0  0  0  0
    3.0240   -7.2630    3.8470 C   0  0  0  0  0  2  0  0  0  0  0  0
    2.0160   -7.6540    4.4970 N   0  0  0  0  0  1  0  0  0  0  0  0
    7.7860   -5.3270    0.8080 S   0  0  0  0  0  0  0  0  0  0  0  0
    8.3500   -4.0510    1.9750 C   0  0  0  0  0  2  0  0  0  0  0  0
   10.1260   -1.6810   -0.4490 C   0  0  0  0  0  0  0  0  0  0  0  0
    9.6230   -2.8490    0.1350 C   0  0  0  0  0  3  0  0  0  0  0  0
    8.9280   -2.8060    1.3490 C   0  0  0  0  0  0  0  0  0  0  0  0
    8.7750   -1.5640    1.9860 C   0  0  0  0  0  3  0  0  0  0  0  0
    9.2740   -0.3900    1.4150 C   0  0  0  0  0  0  0  0  0  0  0  0
    9.9510   -0.4520    0.1950 C   0  0  0  0  0  3  0  0  0  0  0  0
   10.9700   -0.7320   -2.4620 C   0  0  0  0  0  1  0  0  0  0  0  0
   10.7660   -1.8760   -1.6430 O   0  0  0  0  0  0  0  0  0  0  0  0
    9.0260    0.7410    2.1440 O   0  0  0  0  0  0  0  0  0  0  0  0
    9.4200    1.9820    1.5700 C   0  0  0  0  0  1  0  0  0  0  0  0
  1  2  2  0  0  0  0
  1  7  1  0  0  0  0
  2  3  1  0  0  0  0
  3  9  1  0  0  0  0
  3  4  2  0  0  0  0
  4 17  1  0  0  0  0
  5  4  1  0  0  0  0
  5  6  2  0  0  0  0
  7  5  1  0  0  0  0
  8  7  1  0  0  0  0
  9 10  1  0  0  0  0
 10 11  2  0  0  0  0
 12 13  1  0  0  0  0
 12 11  1  0  0  0  0
 14 12  2  0  0  0  0
 15 14  1  0  0  0  0
 15  9  2  0  0  0  0
 16 15  1  0  0  0  0
 17 18  1  0  0  0  0
 19  1  1  0  0  0  0
 19 20  1  0  0  0  0
 21 22  2  0  0  0  0
 21 26  1  0  0  0  0
 22 23  1  0  0  0  0
 23 20  1  0  0  0  0
 23 24  2  0  0  0  0
 25 24  1  0  0  0  0
 25 29  1  0  0  0  0
 26 25  2  0  0  0  0
 27 28  1  0  0  0  0
 28 21  1  0  0  0  0
 30 29  1  0  0  0  0
M  END
>  <minimizedAffinity>
-7.47435951

$$$$

 OpenBabel09122218253D

 30 32  0  0  0  0  0  0  0  0999 V2000
    6.8190   -5.4400    1.7240 C   0  0  0  0  0  0  0  0  0  0  0  0
    6.5050   -6.6850    1.7880 N   0  0  0  0  0  0  0  0  0  0  0  0
    5.3610   -7.0230    2.4670 C   0  0  0  0  0  0  0  0  0  0  0  0
    4.5700   -6.1350    3.0960 C   0  0  0  0  0  0  0  0  0  0  0  0
    4.9640   -4.7130    3.0290 C   0  0  0  0  0  0  0  0  0  0  0  0
    4.3250   -3.8210    3.5730 O   0  0  0  0  0  0  0  0  0  0  0  0
    6.1010   -4.4510    2.3150 N   0  0  0  0  0  0  0  0  0  0  0  0
    6.4120   -3.4950    2.2440 H   0  0  0  0  0  0  0  0  0  0  0  0
    5.0550   -8.4700    2.4700 C   0  0  0  0  0  0  0  0  0  0  0  0
    5.7060   -9.2870    3.4090 C   0  0  0  0  0  3  0  0  0  0  0  0
    5.4790  -10.6640    3.4280 C   0  0  0  0  0  3  0  0  0  0  0  0
    4.6050  -11.2340    2.5050 C   0  0  0  0  0  0  0  0  0  0  0  0
    4.3440  -12.9340    2.5170 Cl  0  0  0  0  0  0  0  0  0  0  0  0
    3.9540  -10.4430    1.5630 C   0  0  0  0  0  3  0  0  0  0  0  0
    4.1820   -9.0640    1.5410 C   0  0  0  0  0  0  0  0  0  0  0  0
    3.3740   -8.1300    0.3300 Cl  0  0  0  0  0  0  0  0  0  0  0  0
    3.3200   -6.5360    3.8610 C   0  0  0  0  0  2  0  0  0  0  0  0
    2.2810   -6.8690    4.4960 N   0  0  0  0  0  1  0  0  0  0  0  0
    8.2300   -4.8750    0.8960 S   0  0  0  0  0  0  0  0  0  0  0  0
    8.7110   -3.4730    1.9500 C   0  0  0  0  0  2  0  0  0  0  0  0
    9.4610    0.1770    1.0780 C   0  0  0  0  0  0  0  0  0  0  0  0
    8.9950   -0.9570    1.7540 C   0  0  0  0  0  3  0  0  0  0  0  0
    9.1760   -2.2380    1.2200 C   0  0  0  0  0  0  0  0  0  0  0  0
    9.8050   -2.3570   -0.0300 C   0  0  0  0  0  3  0  0  0  0  0  0
   10.2740   -1.2320   -0.7160 C   0  0  0  0  0  0  0  0  0  0  0  0
   10.0990    0.0360   -0.1580 C   0  0  0  0  0  3  0  0  0  0  0  0
   10.0790    2.4520    1.4090 C   0  0  0  0  0  1  0  0  0  0  0  0
    9.2300    1.3590    1.7310 O   0  0  0  0  0  0  0  0  0  0  0  0
   10.8850   -1.5130   -1.9080 O   0  0  0  0  0  0  0  0  0  0  0  0
   10.8640   -0.4960   -2.9020 C   0  0  0  0  0  1  0  0  0  0  0  0
  1  2  2  0  0  0  0
  1  7  1  0  0  0  0
  2  3  1  0  0  0  0
  3  9  1  0  0  0  0
  3  4  2  0  0  0  0
  4 17  1  0  0  0  0
  5  4  1  0  0  0  0
  5  6  2  0  0  0  0
  7  5  1  0  0  0  0
  8  7  1  0  0  0  0
  9 10  1  0  0  0  0
 10 11  2  0  0  0  0
 12 13  1  0  0  0  0
 12 11  1  0  0  0  0
 14 12  2  0  0  0  0
 15 14  1  0  0  0  0
 15  9  2  0  0  0  0
 16 15  1  0  0  0  0
 17 18  1  0  0  0  0
 19  1  1  0  0  0  0
 19 20  1  0  0  0  0
 21 28  1  0  0  0  0
 21 22  1  0  0  0  0
 23 22  2  0  0  0  0
 23 20  1  0  0  0  0
 24 23  1  0  0  0  0
 25 26  1  0  0  0  0
 25 24  2  0  0  0  0
 26 21  2  0  0  0  0
 27 28  1  0  0  0  0
 29 25  1  0  0  0  0
 30 29  1  0  0  0  0
M  END
>  <minimizedAffinity>
-7.39700794

$$$$

 OpenBabel09122218253D

 30 32  0  0  0  0  0  0  0  0999 V2000
    6.1030   -6.3640    1.4820 C   0  0  0  0  0  0  0  0  0  0  0  0
    5.8080   -7.6110    1.3810 N   0  0  0  0  0  0  0  0  0  0  0  0
    4.7550   -8.0830    2.1250 C   0  0  0  0  0  0  0  0  0  0  0  0
    4.0380   -7.3260    2.9760 C   0  0  0  0  0  0  0  0  0  0  0  0
    4.4120   -5.9020    3.0930 C   0  0  0  0  0  0  0  0  0  0  0  0
    3.8360   -5.1240    3.8440 O   0  0  0  0  0  0  0  0  0  0  0  0
    5.4540   -5.5010    2.3040 N   0  0  0  0  0  0  0  0  0  0  0  0
    5.7480   -4.5370    2.3520 H   0  0  0  0  0  0  0  0  0  0  0  0
    4.4610   -9.5190    1.9310 C   0  0  0  0  0  0  0  0  0  0  0  0
    3.6860   -9.8950    0.8220 C   0  0  0  0  0  3  0  0  0  0  0  0
    3.3510  -11.2340    0.6130 C   0  0  0  0  0  3  0  0  0  0  0  0
    3.7840  -12.2040    1.5150 C   0  0  0  0  0  0  0  0  0  0  0  0
    3.3500  -13.8500    1.2680 Cl  0  0  0  0  0  0  0  0  0  0  0  0
    4.5480  -11.8510    2.6240 C   0  0  0  0  0  3  0  0  0  0  0  0
    4.8820  -10.5100    2.8340 C   0  0  0  0  0  0  0  0  0  0  0  0
    5.8060  -10.1190    4.2440 Cl  0  0  0  0  0  0  0  0  0  0  0  0
    2.8900   -7.8750    3.8070 C   0  0  0  0  0  2  0  0  0  0  0  0
    1.9370   -8.3300    4.4970 N   0  0  0  0  0  1  0  0  0  0  0  0
    7.4030   -5.6390    0.5980 S   0  0  0  0  0  0  0  0  0  0  0  0
    8.0870   -4.5130    1.8510 C   0  0  0  0  0  2  0  0  0  0  0  0
    9.9990   -2.0560   -0.3740 C   0  0  0  0  0  0  0  0  0  0  0  0
    9.4480   -3.2420    0.1240 C   0  0  0  0  0  3  0  0  0  0  0  0
    8.7170   -3.2500    1.3180 C   0  0  0  0  0  0  0  0  0  0  0  0
    8.5780   -2.0440    2.0230 C   0  0  0  0  0  3  0  0  0  0  0  0
    9.1250   -0.8530    1.5370 C   0  0  0  0  0  0  0  0  0  0  0  0
    9.8370   -0.8620    0.3360 C   0  0  0  0  0  3  0  0  0  0  0  0
   11.1590   -1.0140   -2.1730 C   0  0  0  0  0  1  0  0  0  0  0  0
   10.6700   -2.1990   -1.5600 O   0  0  0  0  0  0  0  0  0  0  0  0
    8.8850    0.2400    2.3250 O   0  0  0  0  0  0  0  0  0  0  0  0
    9.6780    1.3970    2.0880 C   0  0  0  0  0  1  0  0  0  0  0  0
  1  7  1  0  0  0  0
  2  1  2  0  0  0  0
  2  3  1  0  0  0  0
  3  4  2  0  0  0  0
  4  5  1  0  0  0  0
  4 17  1  0  0  0  0
  5  6  2  0  0  0  0
  7  8  1  0  0  0  0
  7  5  1  0  0  0  0
  9  3  1  0  0  0  0
  9 15  1  0  0  0  0
 10  9  2  0  0  0  0
 11 10  1  0  0  0  0
 11 12  2  0  0  0  0
 12 14  1  0  0  0  0
 13 12  1  0  0  0  0
 14 15  2  0  0  0  0
 15 16  1  0  0  0  0
 17 18  1  0  0  0  0
 19  1  1  0  0  0  0
 19 20  1  0  0  0  0
 21 22  2  0  0  0  0
 21 26  1  0  0  0  0
 22 23  1  0  0  0  0
 23 20  1  0  0  0  0
 23 24  2  0  0  0  0
 25 24  1  0  0  0  0
 25 29  1  0  0  0  0
 26 25  2  0  0  0  0
 27 28  1  0  0  0  0
 28 21  1  0  0  0  0
 30 29  1  0  0  0  0
M  END
>  <minimizedAffinity>
-7.3437295

$$$$

 OpenBabel09122218253D

 30 32  0  0  0  0  0  0  0  0999 V2000
    6.1320   -6.4300    1.4780 C   0  0  0  0  0  0  0  0  0  0  0  0
    5.8150   -7.6700    1.3620 N   0  0  0  0  0  0  0  0  0  0  0  0
    4.7590   -8.1340    2.1070 C   0  0  0  0  0  0  0  0  0  0  0  0
    4.0610   -7.3770    2.9720 C   0  0  0  0  0  0  0  0  0  0  0  0
    4.4600   -5.9610    3.1060 C   0  0  0  0  0  0  0  0  0  0  0  0
    3.9020   -5.1840    3.8710 O   0  0  0  0  0  0  0  0  0  0  0  0
    5.5030   -5.5660    2.3160 N   0  0  0  0  0  0  0  0  0  0  0  0
    5.8140   -4.6090    2.3750 H   0  0  0  0  0  0  0  0  0  0  0  0
    4.4390   -9.5620    1.8940 C   0  0  0  0  0  0  0  0  0  0  0  0
    3.6530   -9.9100    0.7840 C   0  0  0  0  0  3  0  0  0  0  0  0
    3.2940  -11.2400    0.5600 C   0  0  0  0  0  3  0  0  0  0  0  0
    3.7140  -12.2290    1.4470 C   0  0  0  0  0  0  0  0  0  0  0  0
    3.2510  -13.8640    1.1800 Cl  0  0  0  0  0  0  0  0  0  0  0  0
    4.4890  -11.9040    2.5570 C   0  0  0  0  0  3  0  0  0  0  0  0
    4.8470  -10.5720    2.7830 C   0  0  0  0  0  0  0  0  0  0  0  0
    5.7840  -10.2150    4.1930 Cl  0  0  0  0  0  0  0  0  0  0  0  0
    2.9090   -7.9170    3.8030 C   0  0  0  0  0  2  0  0  0  0  0  0
    1.9520   -8.3650    4.4930 N   0  0  0  0  0  1  0  0  0  0  0  0
    7.4380   -5.7150    0.5950 S   0  0  0  0  0  0  0  0  0  0  0  0
    8.1510   -4.6180    1.8590 C   0  0  0  0  0  2  0  0  0  0  0  0
    9.1460   -0.9390    1.5140 C   0  0  0  0  0  0  0  0  0  0  0  0
    8.5490   -2.1130    1.9870 C   0  0  0  0  0  3  0  0  0  0  0  0
    8.7590   -3.3390    1.3430 C   0  0  0  0  0  0  0  0  0  0  0  0
    9.5590   -3.3570    0.1890 C   0  0  0  0  0  3  0  0  0  0  0  0
   10.1610   -2.1910   -0.2940 C   0  0  0  0  0  0  0  0  0  0  0  0
    9.9510   -0.9810    0.3710 C   0  0  0  0  0  3  0  0  0  0  0  0
    9.5220    1.3810    1.8860 C   0  0  0  0  0  1  0  0  0  0  0  0
    8.8640    0.1770    2.2550 O   0  0  0  0  0  0  0  0  0  0  0  0
   10.9290   -2.3750   -1.4120 O   0  0  0  0  0  0  0  0  0  0  0  0
   11.1400   -1.2430   -2.2470 C   0  0  0  0  0  1  0  0  0  0  0  0
  1  7  1  0  0  0  0
  2  1  2  0  0  0  0
  2  3  1  0  0  0  0
  3  4  2  0  0  0  0
  4  5  1  0  0  0  0
  4 17  1  0  0  0  0
  5  6  2  0  0  0  0
  7  8  1  0  0  0  0
  7  5  1  0  0  0  0
  9  3  1  0  0  0  0
  9 15  1  0  0  0  0
 10  9  2  0  0  0  0
 11 10  1  0  0  0  0
 11 12  2  0  0  0  0
 12 14  1  0  0  0  0
 13 12  1  0  0  0  0
 14 15  2  0  0  0  0
 15 16  1  0  0  0  0
 17 18  1  0  0  0  0
 19  1  1  0  0  0  0
 19 20  1  0  0  0  0
 21 22  1  0  0  0  0
 21 28  1  0  0  0  0
 23 20  1  0  0  0  0
 23 22  2  0  0  0  0
 24 23  1  0  0  0  0
 25 24  2  0  0  0  0
 25 26  1  0  0  0  0
 26 21  2  0  0  0  0
 27 28  1  0  0  0  0
 29 25  1  0  0  0  0
 30 29  1  0  0  0  0
M  END
>  <minimizedAffinity>
-7.23933744

$$$$

 OpenBabel09122218253D

 30 32  0  0  0  0  0  0  0  0999 V2000
    5.1320   -7.1420    1.0870 C   0  0  0  0  0  0  0  0  0  0  0  0
    4.0560   -7.7210    1.4860 N   0  0  0  0  0  0  0  0  0  0  0  0
    4.1800   -8.7810    2.3490 C   0  0  0  0  0  0  0  0  0  0  0  0
    5.3590   -9.2700    2.7740 C   0  0  0  0  0  0  0  0  0  0  0  0
    6.5830   -8.6040    2.2830 C   0  0  0  0  0  0  0  0  0  0  0  0
    7.7090   -8.9710    2.5950 O   0  0  0  0  0  0  0  0  0  0  0  0
    6.3790   -7.5420    1.4460 N   0  0  0  0  0  0  0  0  0  0  0  0
    7.1850   -7.0570    1.0820 H   0  0  0  0  0  0  0  0  0  0  0  0
    2.8950   -9.3710    2.7830 C   0  0  0  0  0  0  0  0  0  0  0  0
    2.2730   -8.8440    3.9270 C   0  0  0  0  0  3  0  0  0  0  0  0
    1.0780   -9.3900    4.3980 C   0  0  0  0  0  3  0  0  0  0  0  0
    0.5010  -10.4690    3.7330 C   0  0  0  0  0  0  0  0  0  0  0  0
   -0.9600  -11.1540    4.3300 Cl  0  0  0  0  0  0  0  0  0  0  0  0
    1.1050  -11.0100    2.6010 C   0  0  0  0  0  3  0  0  0  0  0  0
    2.3020  -10.4660    2.1300 C   0  0  0  0  0  0  0  0  0  0  0  0
    3.0290  -11.1940    0.7390 Cl  0  0  0  0  0  0  0  0  0  0  0  0
    5.4730  -10.4590    3.7130 C   0  0  0  0  0  2  0  0  0  0  0  0
    5.5680  -11.4470    4.4920 N   0  0  0  0  0  1  0  0  0  0  0  0
    5.1190   -5.7930    0.0040 S   0  0  0  0  0  0  0  0  0  0  0  0
    6.8170   -5.8560   -0.6470 C   0  0  0  0  0  2  0  0  0  0  0  0
    8.6540   -3.6770    1.9070 C   0  0  0  0  0  0  0  0  0  0  0  0
    7.7240   -4.5530    1.3350 C   0  0  0  0  0  3  0  0  0  0  0  0
    7.7900   -4.8880   -0.0230 C   0  0  0  0  0  0  0  0  0  0  0  0
    8.7930   -4.2950   -0.8070 C   0  0  0  0  0  3  0  0  0  0  0  0
    9.7270   -3.4180   -0.2490 C   0  0  0  0  0  0  0  0  0  0  0  0
    9.6540   -3.1090    1.1110 C   0  0  0  0  0  3  0  0  0  0  0  0
    9.5190   -2.7850    3.9370 C   0  0  0  0  0  1  0  0  0  0  0  0
    8.4760   -3.4600    3.2470 O   0  0  0  0  0  0  0  0  0  0  0  0
   10.6540   -2.9430   -1.1360 O   0  0  0  0  0  0  0  0  0  0  0  0
   10.7670   -1.5300   -1.2620 C   0  0  0  0  0  1  0  0  0  0  0  0
  1  7  1  0  0  0  0
  1  2  2  0  0  0  0
  2  3  1  0  0  0  0
  3  4  2  0  0  0  0
  3  9  1  0  0  0  0
  4 17  1  0  0  0  0
  5  6  2  0  0  0  0
  5  4  1  0  0  0  0
  7  5  1  0  0  0  0
  8  7  1  0  0  0  0
  9 10  1  0  0  0  0
 10 11  2  0  0  0  0
 12 13  1  0  0  0  0
 12 11  1  0  0  0  0
 14 12  2  0  0  0  0
 15 14  1  0  0  0  0
 15  9  2  0  0  0  0
 16 15  1  0  0  0  0
 17 18  1  0  0  0  0
 19  1  1  0  0  0  0
 20 23  1  0  0  0  0
 20 19  1  0  0  0  0
 21 28  1  0  0  0  0
 22 21  1  0  0  0  0
 23 22  2  0  0  0  0
 24 25  2  0  0  0  0
 24 23  1  0  0  0  0
 25 26  1  0  0  0  0
 26 21  2  0  0  0  0
 28 27  1  0  0  0  0
 29 25  1  0  0  0  0
 30 29  1  0  0  0  0
M  END
>  <minimizedAffinity>
-7.09273243

$$$$

 OpenBabel09122218253D

 30 32  0  0  0  0  0  0  0  0999 V2000
    7.8920   -4.1710    1.8440 C   0  0  0  0  0  0  0  0  0  0  0  0
    7.0230   -4.9240    2.4190 N   0  0  0  0  0  0  0  0  0  0  0  0
    6.3940   -5.8750    1.6550 C   0  0  0  0  0  0  0  0  0  0  0  0
    6.6070   -6.0420    0.3370 C   0  0  0  0  0  0  0  0  0  0  0  0
    7.5920   -5.1490   -0.3060 C   0  0  0  0  0  0  0  0  0  0  0  0
    7.8580   -5.2040   -1.5010 O   0  0  0  0  0  0  0  0  0  0  0  0
    8.1960   -4.2440    0.5230 N   0  0  0  0  0  0  0  0  0  0  0  0
    8.8740   -3.6110    0.1290 H   0  0  0  0  0  0  0  0  0  0  0  0
    5.4310   -6.7180    2.3960 C   0  0  0  0  0  0  0  0  0  0  0  0
    5.6600   -8.1030    2.4450 C   0  0  0  0  0  3  0  0  0  0  0  0
    4.7610   -8.9460    3.1020 C   0  0  0  0  0  3  0  0  0  0  0  0
    3.6270   -8.4110    3.7080 C   0  0  0  0  0  0  0  0  0  0  0  0
    2.5100   -9.4550    4.4970 Cl  0  0  0  0  0  0  0  0  0  0  0  0
    3.3790   -7.0420    3.6660 C   0  0  0  0  0  3  0  0  0  0  0  0
    4.2770   -6.1970    3.0070 C   0  0  0  0  0  0  0  0  0  0  0  0
    3.9080   -4.5070    2.9550 Cl  0  0  0  0  0  0  0  0  0  0  0  0
    5.8820   -7.0870   -0.4940 C   0  0  0  0  0  2  0  0  0  0  0  0
    5.2790   -7.9540   -1.1840 N   0  0  0  0  0  1  0  0  0  0  0  0
    8.7620   -2.9370    2.6900 S   0  0  0  0  0  0  0  0  0  0  0  0
   10.0070   -2.4770    1.4460 C   0  0  0  0  0  2  0  0  0  0  0  0
   10.3310    0.7040   -0.6570 C   0  0  0  0  0  0  0  0  0  0  0  0
   10.3720   -0.6410   -0.2700 C   0  0  0  0  0  3  0  0  0  0  0  0
   10.0010   -1.0300    1.0230 C   0  0  0  0  0  0  0  0  0  0  0  0
    9.6180   -0.0330    1.9340 C   0  0  0  0  0  3  0  0  0  0  0  0
    9.5730    1.3140    1.5610 C   0  0  0  0  0  0  0  0  0  0  0  0
    9.9320    1.6800    0.2620 C   0  0  0  0  0  3  0  0  0  0  0  0
   10.6600   -0.1800   -2.8430 C   0  0  0  0  0  1  0  0  0  0  0  0
   10.7030    0.9290   -1.9550 O   0  0  0  0  0  0  0  0  0  0  0  0
    9.1590    2.1600    2.5530 O   0  0  0  0  0  0  0  0  0  0  0  0
   10.1270    2.5520    3.5180 C   0  0  0  0  0  1  0  0  0  0  0  0
  1  2  2  0  0  0  0
  1 19  1  0  0  0  0
  3  9  1  0  0  0  0
  3  2  1  0  0  0  0
  4  3  2  0  0  0  0
  5  4  1  0  0  0  0
  5  7  1  0  0  0  0
  6  5  2  0  0  0  0
  7  1  1  0  0  0  0
  8  7  1  0  0  0  0
  9 10  2  0  0  0  0
  9 15  1  0  0  0  0
 10 11  1  0  0  0  0
 11 12  2  0  0  0  0
 12 13  1  0  0  0  0
 14 12  1  0  0  0  0
 15 14  2  0  0  0  0
 16 15  1  0  0  0  0
 17  4  1  0  0  0  0
 18 17  1  0  0  0  0
 20 19  1  0  0  0  0
 21 22  2  0  0  0  0
 21 26  1  0  0  0  0
 22 23  1  0  0  0  0
 23 20  1  0  0  0  0
 23 24  2  0  0  0  0
 25 24  1  0  0  0  0
 25 29  1  0  0  0  0
 26 25  2  0  0  0  0
 27 28  1  0  0  0  0
 28 21  1  0  0  0  0
 29 30  1  0  0  0  0
M  END
>  <minimizedAffinity>
-6.87229729

$$$$

 OpenBabel09122218253D

 30 32  0  0  0  0  0  0  0  0999 V2000
    7.3870   -4.7850    1.8170 C   0  0  0  0  0  0  0  0  0  0  0  0
    7.8060   -3.6980    2.3610 N   0  0  0  0  0  0  0  0  0  0  0  0
    8.6720   -2.9130    1.6410 C   0  0  0  0  0  0  0  0  0  0  0  0
    9.1310   -3.2300    0.4170 C   0  0  0  0  0  0  0  0  0  0  0  0
    8.6550   -4.4950   -0.1780 C   0  0  0  0  0  0  0  0  0  0  0  0
    9.0150   -4.8870   -1.2810 O   0  0  0  0  0  0  0  0  0  0  0  0
    7.7770   -5.2110    0.5880 N   0  0  0  0  0  0  0  0  0  0  0  0
    7.4260   -6.0840    0.2260 H   0  0  0  0  0  0  0  0  0  0  0  0
    9.0830   -1.6680    2.3250 C   0  0  0  0  0  0  0  0  0  0  0  0
    8.9340   -0.4520    1.6390 C   0  0  0  0  0  3  0  0  0  0  0  0
    9.3410    0.7470    2.2270 C   0  0  0  0  0  3  0  0  0  0  0  0
    9.9050    0.7360    3.5010 C   0  0  0  0  0  0  0  0  0  0  0  0
   10.4260    2.2130    4.2130 Cl  0  0  0  0  0  0  0  0  0  0  0  0
   10.0670   -0.4600    4.1950 C   0  0  0  0  0  3  0  0  0  0  0  0
    9.6620   -1.6600    3.6060 C   0  0  0  0  0  0  0  0  0  0  0  0
    9.9130   -3.1230    4.4960 Cl  0  0  0  0  0  0  0  0  0  0  0  0
   10.1070   -2.3550   -0.3530 C   0  0  0  0  0  2  0  0  0  0  0  0
   10.9170   -1.6300   -0.9930 N   0  0  0  0  0  1  0  0  0  0  0  0
    6.2910   -5.8630    2.6110 S   0  0  0  0  0  0  0  0  0  0  0  0
    5.9990   -7.0880    1.2980 C   0  0  0  0  0  2  0  0  0  0  0  0
    3.4700   -9.9590    1.3850 C   0  0  0  0  0  0  0  0  0  0  0  0
    4.1380   -8.7910    1.0010 C   0  0  0  0  0  3  0  0  0  0  0  0
    5.2470   -8.3260    1.7180 C   0  0  0  0  0  0  0  0  0  0  0  0
    5.6540   -9.0430    2.8550 C   0  0  0  0  0  3  0  0  0  0  0  0
    4.9950  -10.2110    3.2500 C   0  0  0  0  0  0  0  0  0  0  0  0
    3.9000  -10.6670    2.5120 C   0  0  0  0  0  3  0  0  0  0  0  0
    2.4320  -11.6040    0.0130 C   0  0  0  0  0  1  0  0  0  0  0  0
    2.4180  -10.3000    0.5780 O   0  0  0  0  0  0  0  0  0  0  0  0
    5.5230  -10.8080    4.3620 O   0  0  0  0  0  0  0  0  0  0  0  0
    5.3350  -12.2110    4.4970 C   0  0  0  0  0  1  0  0  0  0  0  0
  1  2  2  0  0  0  0
  1 19  1  0  0  0  0
  3  9  1  0  0  0  0
  3  2  1  0  0  0  0
  4  3  2  0  0  0  0
  5  4  1  0  0  0  0
  5  7  1  0  0  0  0
  6  5  2  0  0  0  0
  7  1  1  0  0  0  0
  8  7  1  0  0  0  0
  9 15  1  0  0  0  0
 10 11  1  0  0  0  0
 10  9  2  0  0  0  0
 11 12  2  0  0  0  0
 12 14  1  0  0  0  0
 12 13  1  0  0  0  0
 15 14  2  0  0  0  0
 15 16  1  0  0  0  0
 17  4  1  0  0  0  0
 18 17  1  0  0  0  0
 20 23  1  0  0  0  0
 20 19  1  0  0  0  0
 21 26  1  0  0  0  0
 22 21  2  0  0  0  0
 22 23  1  0  0  0  0
 23 24  2  0  0  0  0
 24 25  1  0  0  0  0
 25 29  1  0  0  0  0
 26 25  2  0  0  0  0
 27 28  1  0  0  0  0
 28 21  1  0  0  0  0
 29 30  1  0  0  0  0
M  END
>  <minimizedAffinity>
-6.11089182

$$$$

 OpenBabel09122218253D

 30 32  0  0  0  0  0  0  0  0999 V2000
    5.4070   -8.4710    3.1120 C   0  0  0  0  0  0  0  0  0  0  0  0
    6.1920   -7.7290    2.4150 N   0  0  0  0  0  0  0  0  0  0  0  0
    5.9200   -6.3840    2.3570 C   0  0  0  0  0  0  0  0  0  0  0  0
    4.8650   -5.8050    2.9590 C   0  0  0  0  0  0  0  0  0  0  0  0
    3.9640   -6.6820    3.7330 C   0  0  0  0  0  0  0  0  0  0  0  0
    2.9680   -6.2650    4.3120 O   0  0  0  0  0  0  0  0  0  0  0  0
    4.3120   -8.0040    3.7640 N   0  0  0  0  0  0  0  0  0  0  0  0
    3.7250   -8.6420    4.2780 H   0  0  0  0  0  0  0  0  0  0  0  0
    6.8860   -5.5970    1.5610 C   0  0  0  0  0  0  0  0  0  0  0  0
    7.7070   -4.6760    2.2310 C   0  0  0  0  0  3  0  0  0  0  0  0
    8.6090   -3.8830    1.5190 C   0  0  0  0  0  3  0  0  0  0  0  0
    8.6910   -4.0020    0.1340 C   0  0  0  0  0  0  0  0  0  0  0  0
    9.7880   -3.0080   -0.7420 Cl  0  0  0  0  0  0  0  0  0  0  0  0
    7.8810   -4.9050   -0.5500 C   0  0  0  0  0  3  0  0  0  0  0  0
    6.9760   -5.6970    0.1610 C   0  0  0  0  0  0  0  0  0  0  0  0
    5.9700   -6.7800   -0.7380 Cl  0  0  0  0  0  0  0  0  0  0  0  0
    4.5710   -4.3170    2.8630 C   0  0  0  0  0  2  0  0  0  0  0  0
    4.3270   -3.0820    2.7840 N   0  0  0  0  0  1  0  0  0  0  0  0
    5.6370  -10.1780    3.2720 S   0  0  0  0  0  0  0  0  0  0  0  0
    4.1150  -10.6510    4.1500 C   0  0  0  0  0  2  0  0  0  0  0  0
    0.6700  -11.6880    2.8450 C   0  0  0  0  0  0  0  0  0  0  0  0
    1.6760  -11.1690    3.6690 C   0  0  0  0  0  3  0  0  0  0  0  0
    3.0230  -11.2350    3.2910 C   0  0  0  0  0  0  0  0  0  0  0  0
    3.3440  -11.8660    2.0780 C   0  0  0  0  0  3  0  0  0  0  0  0
    2.3490  -12.3900    1.2470 C   0  0  0  0  0  0  0  0  0  0  0  0
    1.0110  -12.3000    1.6350 C   0  0  0  0  0  3  0  0  0  0  0  0
   -0.8120  -10.4690    4.2520 C   0  0  0  0  0  1  0  0  0  0  0  0
   -0.5980  -11.5350    3.3370 O   0  0  0  0  0  0  0  0  0  0  0  0
    2.8190  -12.9510    0.0910 O   0  0  0  0  0  0  0  0  0  0  0  0
    2.1480  -12.6100   -1.1160 C   0  0  0  0  0  1  0  0  0  0  0  0
  1 19  1  0  0  0  0
  1  7  1  0  0  0  0
  2  1  2  0  0  0  0
  3  2  1  0  0  0  0
  3  4  2  0  0  0  0
  4  5  1  0  0  0  0
  5  7  1  0  0  0  0
  5  6  2  0  0  0  0
  7  8  1  0  0  0  0
  9 10  1  0  0  0  0
  9  3  1  0  0  0  0
 11 10  2  0  0  0  0
 12 11  1  0  0  0  0
 13 12  1  0  0  0  0
 14 12  2  0  0  0  0
 14 15  1  0  0  0  0
 15  9  2  0  0  0  0
 16 15  1  0  0  0  0
 17  4  1  0  0  0  0
 18 17  1  0  0  0  0
 19 20  1  0  0  0  0
 21 28  1  0  0  0  0
 21 22  1  0  0  0  0
 23 22  2  0  0  0  0
 23 20  1  0  0  0  0
 24 23  1  0  0  0  0
 25 26  1  0  0  0  0
 25 24  2  0  0  0  0
 26 21  2  0  0  0  0
 28 27  1  0  0  0  0
 29 25  1  0  0  0  0
 30 29  1  0  0  0  0
M  END
>  <minimizedAffinity>
-6.06405401

$$$$

 OpenBabel09122218253D

 30 32  0  0  0  0  0  0  0  0999 V2000
    5.4180   -8.4760    3.1160 C   0  0  0  0  0  0  0  0  0  0  0  0
    6.1990   -7.7370    2.4110 N   0  0  0  0  0  0  0  0  0  0  0  0
    5.9210   -6.3940    2.3450 C   0  0  0  0  0  0  0  0  0  0  0  0
    4.8660   -5.8140    2.9450 C   0  0  0  0  0  0  0  0  0  0  0  0
    3.9710   -6.6880    3.7290 C   0  0  0  0  0  0  0  0  0  0  0  0
    2.9750   -6.2700    4.3080 O   0  0  0  0  0  0  0  0  0  0  0  0
    4.3240   -8.0080    3.7690 N   0  0  0  0  0  0  0  0  0  0  0  0
    3.7410   -8.6450    4.2900 H   0  0  0  0  0  0  0  0  0  0  0  0
    6.8820   -5.6100    1.5380 C   0  0  0  0  0  0  0  0  0  0  0  0
    7.7140   -4.6930    2.2010 C   0  0  0  0  0  3  0  0  0  0  0  0
    8.6120   -3.9030    1.4810 C   0  0  0  0  0  3  0  0  0  0  0  0
    8.6780   -4.0200    0.0940 C   0  0  0  0  0  0  0  0  0  0  0  0
    9.7700   -3.0290   -0.7920 Cl  0  0  0  0  0  0  0  0  0  0  0  0
    7.8580   -4.9180   -0.5820 C   0  0  0  0  0  3  0  0  0  0  0  0
    6.9570   -5.7080    0.1380 C   0  0  0  0  0  0  0  0  0  0  0  0
    5.9370   -6.7860   -0.7520 Cl  0  0  0  0  0  0  0  0  0  0  0  0
    4.5670   -4.3280    2.8390 C   0  0  0  0  0  2  0  0  0  0  0  0
    4.3180   -3.0940    2.7510 N   0  0  0  0  0  1  0  0  0  0  0  0
    5.6550  -10.1820    3.2900 S   0  0  0  0  0  0  0  0  0  0  0  0
    4.1120  -10.6610    4.1260 C   0  0  0  0  0  2  0  0  0  0  0  0
    2.3370  -12.3870    1.2070 C   0  0  0  0  0  0  0  0  0  0  0  0
    3.3430  -11.8370    2.0100 C   0  0  0  0  0  3  0  0  0  0  0  0
    3.0370  -11.2290    3.2330 C   0  0  0  0  0  0  0  0  0  0  0  0
    1.6900  -11.1540    3.6210 C   0  0  0  0  0  3  0  0  0  0  0  0
    0.6750  -11.6980    2.8290 C   0  0  0  0  0  0  0  0  0  0  0  0
    1.0030  -12.3150    1.6190 C   0  0  0  0  0  3  0  0  0  0  0  0
    2.1350  -12.5920   -1.1550 C   0  0  0  0  0  1  0  0  0  0  0  0
    2.7890  -12.9640    0.0500 O   0  0  0  0  0  0  0  0  0  0  0  0
   -0.5820  -11.5660    3.3530 O   0  0  0  0  0  0  0  0  0  0  0  0
   -0.8380  -10.4090    4.1390 C   0  0  0  0  0  1  0  0  0  0  0  0
  1 19  1  0  0  0  0
  1  7  1  0  0  0  0
  2  1  2  0  0  0  0
  3  2  1  0  0  0  0
  3  4  2  0  0  0  0
  4  5  1  0  0  0  0
  5  7  1  0  0  0  0
  5  6  2  0  0  0  0
  7  8  1  0  0  0  0
  9 10  1  0  0  0  0
  9  3  1  0  0  0  0
 11 10  2  0  0  0  0
 12 11  1  0  0  0  0
 13 12  1  0  0  0  0
 14 12  2  0  0  0  0
 14 15  1  0  0  0  0
 15  9  2  0  0  0  0
 16 15  1  0  0  0  0
 17  4  1  0  0  0  0
 18 17  1  0  0  0  0
 19 20  1  0  0  0  0
 21 26  2  0  0  0  0
 21 22  1  0  0  0  0
 22 23  2  0  0  0  0
 23 24  1  0  0  0  0
 23 20  1  0  0  0  0
 25 29  1  0  0  0  0
 25 24  2  0  0  0  0
 26 25  1  0  0  0  0
 27 28  1  0  0  0  0
 28 21  1  0  0  0  0
 29 30  1  0  0  0  0
M  END
>  <minimizedAffinity>
-6.0536871

$$$$
