
 OpenBabel09122222393D

 30 32  0  0  0  0  0  0  0  0999 V2000
    5.4180   -8.4760    3.1160 C   0  0  0  0  0  0  0  0  0  0  0  0
    6.1990   -7.7370    2.4110 N   0  0  0  0  0  0  0  0  0  0  0  0
    5.9210   -6.3940    2.3450 C   0  0  0  0  0  0  0  0  0  0  0  0
    4.8660   -5.8140    2.9450 C   0  0  0  0  0  0  0  0  0  0  0  0
    3.9710   -6.6880    3.7290 C   0  0  0  0  0  0  0  0  0  0  0  0
    2.9750   -6.2700    4.3080 O   0  0  0  0  0  0  0  0  0  0  0  0
    4.3240   -8.0080    3.7690 N   0  0  0  0  0  0  0  0  0  0  0  0
    3.7410   -8.6450    4.2900 H   0  0  0  0  0  0  0  0  0  0  0  0
    6.8820   -5.6100    1.5380 C   0  0  0  0  0  0  0  0  0  0  0  0
    7.7140   -4.6930    2.2010 C   0  0  0  0  0  3  0  0  0  0  0  0
    8.6120   -3.9030    1.4810 C   0  0  0  0  0  3  0  0  0  0  0  0
    8.6780   -4.0200    0.0940 C   0  0  0  0  0  0  0  0  0  0  0  0
    9.7700   -3.0290   -0.7920 Cl  0  0  0  0  0  0  0  0  0  0  0  0
    7.8580   -4.9180   -0.5820 C   0  0  0  0  0  3  0  0  0  0  0  0
    6.9570   -5.7080    0.1380 C   0  0  0  0  0  0  0  0  0  0  0  0
    5.9370   -6.7860   -0.7520 Cl  0  0  0  0  0  0  0  0  0  0  0  0
    4.5670   -4.3280    2.8390 C   0  0  0  0  0  2  0  0  0  0  0  0
    4.3180   -3.0940    2.7510 N   0  0  0  0  0  1  0  0  0  0  0  0
    5.6550  -10.1820    3.2900 S   0  0  0  0  0  0  0  0  0  0  0  0
    4.1120  -10.6610    4.1260 C   0  0  0  0  0  2  0  0  0  0  0  0
    2.3370  -12.3870    1.2070 C   0  0  0  0  0  0  0  0  0  0  0  0
    3.3430  -11.8370    2.0100 C   0  0  0  0  0  3  0  0  0  0  0  0
    3.0370  -11.2290    3.2330 C   0  0  0  0  0  0  0  0  0  0  0  0
    1.6900  -11.1540    3.6210 C   0  0  0  0  0  3  0  0  0  0  0  0
    0.6750  -11.6980    2.8290 C   0  0  0  0  0  0  0  0  0  0  0  0
    1.0030  -12.3150    1.6190 C   0  0  0  0  0  3  0  0  0  0  0  0
    2.1350  -12.5920   -1.1550 C   0  0  0  0  0  1  0  0  0  0  0  0
    2.7890  -12.9640    0.0500 O   0  0  0  0  0  0  0  0  0  0  0  0
   -0.5820  -11.5660    3.3530 O   0  0  0  0  0  0  0  0  0  0  0  0
   -0.8380  -10.4090    4.1390 C   0  0  0  0  0  1  0  0  0  0  0  0
  1 19  1  0  0  0  0
  1  7  1  0  0  0  0
  2  1  2  0  0  0  0
  3  2  1  0  0  0  0
  3  4  2  0  0  0  0
  4  5  1  0  0  0  0
  5  7  1  0  0  0  0
  5  6  2  0  0  0  0
  7  8  1  0  0  0  0
  9 10  1  0  0  0  0
  9  3  1  0  0  0  0
 11 10  2  0  0  0  0
 12 11  1  0  0  0  0
 13 12  1  0  0  0  0
 14 12  2  0  0  0  0
 14 15  1  0  0  0  0
 15  9  2  0  0  0  0
 16 15  1  0  0  0  0
 17  4  1  0  0  0  0
 18 17  1  0  0  0  0
 19 20  1  0  0  0  0
 21 26  2  0  0  0  0
 21 22  1  0  0  0  0
 22 23  2  0  0  0  0
 23 24  1  0  0  0  0
 23 20  1  0  0  0  0
 25 29  1  0  0  0  0
 25 24  2  0  0  0  0
 26 25  1  0  0  0  0
 27 28  1  0  0  0  0
 28 21  1  0  0  0  0
 29 30  1  0  0  0  0
M  END
>  <minimizedAffinity>
-6.0536871

$$$$
