
 OpenBabel09122222393D

 30 32  0  0  0  0  0  0  0  0999 V2000
    6.4230   -5.9710    1.6590 C   0  0  0  0  0  0  0  0  0  0  0  0
    6.1990   -7.2340    1.7530 N   0  0  0  0  0  0  0  0  0  0  0  0
    5.0870   -7.6370    2.4490 C   0  0  0  0  0  0  0  0  0  0  0  0
    4.2380   -6.7930    3.0640 C   0  0  0  0  0  0  0  0  0  0  0  0
    4.5300   -5.3480    2.9610 C   0  0  0  0  0  0  0  0  0  0  0  0
    3.8320   -4.4910    3.4900 O   0  0  0  0  0  0  0  0  0  0  0  0
    5.6410   -5.0230    2.2330 N   0  0  0  0  0  0  0  0  0  0  0  0
    5.8820   -4.0480    2.1380 H   0  0  0  0  0  0  0  0  0  0  0  0
    4.8850   -9.1010    2.4870 C   0  0  0  0  0  0  0  0  0  0  0  0
    5.6910   -9.8620    3.3480 C   0  0  0  0  0  3  0  0  0  0  0  0
    5.5650  -11.2520    3.3930 C   0  0  0  0  0  3  0  0  0  0  0  0
    4.6350  -11.8890    2.5740 C   0  0  0  0  0  0  0  0  0  0  0  0
    4.4970  -13.6030    2.6170 Cl  0  0  0  0  0  0  0  0  0  0  0  0
    3.8300  -11.1530    1.7090 C   0  0  0  0  0  3  0  0  0  0  0  0
    3.9580   -9.7620    1.6610 C   0  0  0  0  0  0  0  0  0  0  0  0
    2.9570   -8.8960    0.5470 Cl  0  0  0  0  0  0  0  0  0  0  0  0
    3.0240   -7.2630    3.8470 C   0  0  0  0  0  2  0  0  0  0  0  0
    2.0160   -7.6540    4.4970 N   0  0  0  0  0  1  0  0  0  0  0  0
    7.7860   -5.3270    0.8080 S   0  0  0  0  0  0  0  0  0  0  0  0
    8.3500   -4.0510    1.9750 C   0  0  0  0  0  2  0  0  0  0  0  0
   10.1260   -1.6810   -0.4490 C   0  0  0  0  0  0  0  0  0  0  0  0
    9.6230   -2.8490    0.1350 C   0  0  0  0  0  3  0  0  0  0  0  0
    8.9280   -2.8060    1.3490 C   0  0  0  0  0  0  0  0  0  0  0  0
    8.7750   -1.5640    1.9860 C   0  0  0  0  0  3  0  0  0  0  0  0
    9.2740   -0.3900    1.4150 C   0  0  0  0  0  0  0  0  0  0  0  0
    9.9510   -0.4520    0.1950 C   0  0  0  0  0  3  0  0  0  0  0  0
   10.9700   -0.7320   -2.4620 C   0  0  0  0  0  1  0  0  0  0  0  0
   10.7660   -1.8760   -1.6430 O   0  0  0  0  0  0  0  0  0  0  0  0
    9.0260    0.7410    2.1440 O   0  0  0  0  0  0  0  0  0  0  0  0
    9.4200    1.9820    1.5700 C   0  0  0  0  0  1  0  0  0  0  0  0
  1  2  2  0  0  0  0
  1  7  1  0  0  0  0
  2  3  1  0  0  0  0
  3  9  1  0  0  0  0
  3  4  2  0  0  0  0
  4 17  1  0  0  0  0
  5  4  1  0  0  0  0
  5  6  2  0  0  0  0
  7  5  1  0  0  0  0
  8  7  1  0  0  0  0
  9 10  1  0  0  0  0
 10 11  2  0  0  0  0
 12 13  1  0  0  0  0
 12 11  1  0  0  0  0
 14 12  2  0  0  0  0
 15 14  1  0  0  0  0
 15  9  2  0  0  0  0
 16 15  1  0  0  0  0
 17 18  1  0  0  0  0
 19  1  1  0  0  0  0
 19 20  1  0  0  0  0
 21 22  2  0  0  0  0
 21 26  1  0  0  0  0
 22 23  1  0  0  0  0
 23 20  1  0  0  0  0
 23 24  2  0  0  0  0
 25 24  1  0  0  0  0
 25 29  1  0  0  0  0
 26 25  2  0  0  0  0
 27 28  1  0  0  0  0
 28 21  1  0  0  0  0
 30 29  1  0  0  0  0
M  END
>  <minimizedAffinity>
-7.47435951

$$$$
