
 OpenBabel09122222393D

 30 32  0  0  0  0  0  0  0  0999 V2000
    5.4070   -8.4710    3.1120 C   0  0  0  0  0  0  0  0  0  0  0  0
    6.1920   -7.7290    2.4150 N   0  0  0  0  0  0  0  0  0  0  0  0
    5.9200   -6.3840    2.3570 C   0  0  0  0  0  0  0  0  0  0  0  0
    4.8650   -5.8050    2.9590 C   0  0  0  0  0  0  0  0  0  0  0  0
    3.9640   -6.6820    3.7330 C   0  0  0  0  0  0  0  0  0  0  0  0
    2.9680   -6.2650    4.3120 O   0  0  0  0  0  0  0  0  0  0  0  0
    4.3120   -8.0040    3.7640 N   0  0  0  0  0  0  0  0  0  0  0  0
    3.7250   -8.6420    4.2780 H   0  0  0  0  0  0  0  0  0  0  0  0
    6.8860   -5.5970    1.5610 C   0  0  0  0  0  0  0  0  0  0  0  0
    7.7070   -4.6760    2.2310 C   0  0  0  0  0  3  0  0  0  0  0  0
    8.6090   -3.8830    1.5190 C   0  0  0  0  0  3  0  0  0  0  0  0
    8.6910   -4.0020    0.1340 C   0  0  0  0  0  0  0  0  0  0  0  0
    9.7880   -3.0080   -0.7420 Cl  0  0  0  0  0  0  0  0  0  0  0  0
    7.8810   -4.9050   -0.5500 C   0  0  0  0  0  3  0  0  0  0  0  0
    6.9760   -5.6970    0.1610 C   0  0  0  0  0  0  0  0  0  0  0  0
    5.9700   -6.7800   -0.7380 Cl  0  0  0  0  0  0  0  0  0  0  0  0
    4.5710   -4.3170    2.8630 C   0  0  0  0  0  2  0  0  0  0  0  0
    4.3270   -3.0820    2.7840 N   0  0  0  0  0  1  0  0  0  0  0  0
    5.6370  -10.1780    3.2720 S   0  0  0  0  0  0  0  0  0  0  0  0
    4.1150  -10.6510    4.1500 C   0  0  0  0  0  2  0  0  0  0  0  0
    0.6700  -11.6880    2.8450 C   0  0  0  0  0  0  0  0  0  0  0  0
    1.6760  -11.1690    3.6690 C   0  0  0  0  0  3  0  0  0  0  0  0
    3.0230  -11.2350    3.2910 C   0  0  0  0  0  0  0  0  0  0  0  0
    3.3440  -11.8660    2.0780 C   0  0  0  0  0  3  0  0  0  0  0  0
    2.3490  -12.3900    1.2470 C   0  0  0  0  0  0  0  0  0  0  0  0
    1.0110  -12.3000    1.6350 C   0  0  0  0  0  3  0  0  0  0  0  0
   -0.8120  -10.4690    4.2520 C   0  0  0  0  0  1  0  0  0  0  0  0
   -0.5980  -11.5350    3.3370 O   0  0  0  0  0  0  0  0  0  0  0  0
    2.8190  -12.9510    0.0910 O   0  0  0  0  0  0  0  0  0  0  0  0
    2.1480  -12.6100   -1.1160 C   0  0  0  0  0  1  0  0  0  0  0  0
  1 19  1  0  0  0  0
  1  7  1  0  0  0  0
  2  1  2  0  0  0  0
  3  2  1  0  0  0  0
  3  4  2  0  0  0  0
  4  5  1  0  0  0  0
  5  7  1  0  0  0  0
  5  6  2  0  0  0  0
  7  8  1  0  0  0  0
  9 10  1  0  0  0  0
  9  3  1  0  0  0  0
 11 10  2  0  0  0  0
 12 11  1  0  0  0  0
 13 12  1  0  0  0  0
 14 12  2  0  0  0  0
 14 15  1  0  0  0  0
 15  9  2  0  0  0  0
 16 15  1  0  0  0  0
 17  4  1  0  0  0  0
 18 17  1  0  0  0  0
 19 20  1  0  0  0  0
 21 28  1  0  0  0  0
 21 22  1  0  0  0  0
 23 22  2  0  0  0  0
 23 20  1  0  0  0  0
 24 23  1  0  0  0  0
 25 26  1  0  0  0  0
 25 24  2  0  0  0  0
 26 21  2  0  0  0  0
 28 27  1  0  0  0  0
 29 25  1  0  0  0  0
 30 29  1  0  0  0  0
M  END
>  <minimizedAffinity>
-6.06405401

$$$$
