
 OpenBabel09122222393D

 30 32  0  0  0  0  0  0  0  0999 V2000
    7.8920   -4.1710    1.8440 C   0  0  0  0  0  0  0  0  0  0  0  0
    7.0230   -4.9240    2.4190 N   0  0  0  0  0  0  0  0  0  0  0  0
    6.3940   -5.8750    1.6550 C   0  0  0  0  0  0  0  0  0  0  0  0
    6.6070   -6.0420    0.3370 C   0  0  0  0  0  0  0  0  0  0  0  0
    7.5920   -5.1490   -0.3060 C   0  0  0  0  0  0  0  0  0  0  0  0
    7.8580   -5.2040   -1.5010 O   0  0  0  0  0  0  0  0  0  0  0  0
    8.1960   -4.2440    0.5230 N   0  0  0  0  0  0  0  0  0  0  0  0
    8.8740   -3.6110    0.1290 H   0  0  0  0  0  0  0  0  0  0  0  0
    5.4310   -6.7180    2.3960 C   0  0  0  0  0  0  0  0  0  0  0  0
    5.6600   -8.1030    2.4450 C   0  0  0  0  0  3  0  0  0  0  0  0
    4.7610   -8.9460    3.1020 C   0  0  0  0  0  3  0  0  0  0  0  0
    3.6270   -8.4110    3.7080 C   0  0  0  0  0  0  0  0  0  0  0  0
    2.5100   -9.4550    4.4970 Cl  0  0  0  0  0  0  0  0  0  0  0  0
    3.3790   -7.0420    3.6660 C   0  0  0  0  0  3  0  0  0  0  0  0
    4.2770   -6.1970    3.0070 C   0  0  0  0  0  0  0  0  0  0  0  0
    3.9080   -4.5070    2.9550 Cl  0  0  0  0  0  0  0  0  0  0  0  0
    5.8820   -7.0870   -0.4940 C   0  0  0  0  0  2  0  0  0  0  0  0
    5.2790   -7.9540   -1.1840 N   0  0  0  0  0  1  0  0  0  0  0  0
    8.7620   -2.9370    2.6900 S   0  0  0  0  0  0  0  0  0  0  0  0
   10.0070   -2.4770    1.4460 C   0  0  0  0  0  2  0  0  0  0  0  0
   10.3310    0.7040   -0.6570 C   0  0  0  0  0  0  0  0  0  0  0  0
   10.3720   -0.6410   -0.2700 C   0  0  0  0  0  3  0  0  0  0  0  0
   10.0010   -1.0300    1.0230 C   0  0  0  0  0  0  0  0  0  0  0  0
    9.6180   -0.0330    1.9340 C   0  0  0  0  0  3  0  0  0  0  0  0
    9.5730    1.3140    1.5610 C   0  0  0  0  0  0  0  0  0  0  0  0
    9.9320    1.6800    0.2620 C   0  0  0  0  0  3  0  0  0  0  0  0
   10.6600   -0.1800   -2.8430 C   0  0  0  0  0  1  0  0  0  0  0  0
   10.7030    0.9290   -1.9550 O   0  0  0  0  0  0  0  0  0  0  0  0
    9.1590    2.1600    2.5530 O   0  0  0  0  0  0  0  0  0  0  0  0
   10.1270    2.5520    3.5180 C   0  0  0  0  0  1  0  0  0  0  0  0
  1  2  2  0  0  0  0
  1 19  1  0  0  0  0
  3  9  1  0  0  0  0
  3  2  1  0  0  0  0
  4  3  2  0  0  0  0
  5  4  1  0  0  0  0
  5  7  1  0  0  0  0
  6  5  2  0  0  0  0
  7  1  1  0  0  0  0
  8  7  1  0  0  0  0
  9 10  2  0  0  0  0
  9 15  1  0  0  0  0
 10 11  1  0  0  0  0
 11 12  2  0  0  0  0
 12 13  1  0  0  0  0
 14 12  1  0  0  0  0
 15 14  2  0  0  0  0
 16 15  1  0  0  0  0
 17  4  1  0  0  0  0
 18 17  1  0  0  0  0
 20 19  1  0  0  0  0
 21 22  2  0  0  0  0
 21 26  1  0  0  0  0
 22 23  1  0  0  0  0
 23 20  1  0  0  0  0
 23 24  2  0  0  0  0
 25 24  1  0  0  0  0
 25 29  1  0  0  0  0
 26 25  2  0  0  0  0
 27 28  1  0  0  0  0
 28 21  1  0  0  0  0
 29 30  1  0  0  0  0
M  END
>  <minimizedAffinity>
-6.87229729

$$$$
