
 OpenBabel09132204463D

 38 40  0  0  0  0  0  0  0  0999 V2000
    8.7650   -2.2450    6.0510 C   0  0  0  0  0  0  0  0  0  0  0  0
    9.6440   -1.5900    5.2630 C   0  0  0  0  0  2  0  0  0  0  0  0
    9.6150   -1.4560    3.8000 C   0  0  0  0  0  0  0  0  0  0  0  0
    9.2720   -0.2660    3.1510 C   0  0  0  0  0  3  0  0  0  0  0  0
    9.2950   -0.1910    1.7520 C   0  0  0  0  0  3  0  0  0  0  0  0
    9.6770   -1.3030    0.9960 C   0  0  0  0  0  0  0  0  0  0  0  0
   10.0110   -2.4930    1.6430 C   0  0  0  0  0  3  0  0  0  0  0  0
    9.9880   -2.5680    3.0360 C   0  0  0  0  0  3  0  0  0  0  0  0
    9.7420   -1.3590   -0.3800 O   0  0  0  0  0  0  0  0  0  0  0  0
   10.7880   -0.7320   -1.0090 C   0  0  0  0  0  0  0  0  0  0  0  0
   10.6960    0.6550   -1.1650 C   0  0  0  0  0  3  0  0  0  0  0  0
   11.6930    1.3470   -1.8520 C   0  0  0  0  0  3  0  0  0  0  0  0
   12.7740    0.6530   -2.3960 C   0  0  0  0  0  3  0  0  0  0  0  0
   12.8550   -0.7350   -2.2640 C   0  0  0  0  0  3  0  0  0  0  0  0
   11.8550   -1.4330   -1.5810 C   0  0  0  0  0  0  0  0  0  0  0  0
   11.9840   -3.3230   -1.4950 Br  0  0  0  0  0  0  0  0  0  0  0  0
    9.3430   -3.4570    8.0790 O   0  0  0  0  0  0  0  0  0  0  0  0
    9.2260   -2.3850    7.4950 C   0  0  0  0  0  0  0  0  0  0  0  0
    9.3130   -1.2010    8.1600 N   0  0  0  0  0  0  0  0  0  0  0  0
    9.0430   -1.2010    9.1340 H   0  0  0  0  0  0  0  0  0  0  0  0
    9.3490   -0.0730    7.3780 C   0  0  0  0  0  0  0  0  0  0  0  0
   10.8980    0.4470    6.6190 C   0  0  0  0  0  3  0  0  0  0  0  0
   11.0470    2.1240    5.9740 C   0  0  0  0  0  3  0  0  0  0  0  0
    9.6100    3.2650    6.0480 C   0  0  0  0  0  0  0  0  0  0  0  0
    8.0610    2.7540    6.7930 C   0  0  0  0  0  3  0  0  0  0  0  0
    7.9120    1.1010    7.4950 C   0  0  0  0  0  3  0  0  0  0  0  0
    9.7460    4.5560    5.6330 O   0  0  0  0  0  0  0  0  0  0  0  0
   10.6890    4.7610    5.7600 H   0  0  0  0  0  0  0  0  0  0  0  0
    7.6530   -2.9090    5.5160 N   0  0  0  0  0  4  0  0  0  0  0  0
    6.1350   -3.1920    5.7340 C   0  0  0  0  0  2  0  0  0  0  0  0
    6.2140   -4.1400    4.8620 O   0  0  0  0  0  1  0  0  0  0  0  0
    7.8810   -3.4750    4.7020 H   0  0  0  0  0  0  0  0  0  0  0  0
    4.5540   -2.3530    6.9280 C   0  0  0  0  0  3  0  0  0  0  0  0
    4.3840   -0.9530    7.5300 C   0  0  0  0  0  3  0  0  0  0  0  0
    3.3160   -0.3700    8.2820 C   0  0  0  0  0  3  0  0  0  0  0  0
    2.1940   -1.0910    8.6000 C   0  0  0  0  0  3  0  0  0  0  0  0
    2.1500   -2.3950    8.1850 C   0  0  0  0  0  3  0  0  0  0  0  0
    3.2250   -2.9620    7.4360 C   0  0  0  0  0  3  0  0  0  0  0  0
  1 18  1  0  0  0  0
  2  1  1  0  0  0  0
  3  2  1  0  0  0  0
  4  3  1  0  0  0  0
  5  4  2  0  0  0  0
  6  7  2  0  0  0  0
  6  5  1  0  0  0  0
  7  8  1  0  0  0  0
  8  3  2  0  0  0  0
  9  6  1  0  0  0  0
 10  9  1  0  0  0  0
 11 10  1  0  0  0  0
 12 11  2  0  0  0  0
 13 14  2  0  0  0  0
 13 12  1  0  0  0  0
 14 15  1  0  0  0  0
 15 16  1  0  0  0  0
 15 10  2  0  0  0  0
 18 17  2  0  0  0  0
 18 19  1  0  0  0  0
 19 20  1  0  0  0  0
 21 26  1  0  0  0  0
 21 19  1  0  0  0  0
 22 21  2  0  0  0  0
 23 24  2  0  0  0  0
 23 22  1  0  0  0  0
 24 25  1  0  0  0  0
 25 26  2  0  0  0  0
 27 28  1  0  0  0  0
 27 24  1  0  0  0  0
 29 30  1  0  0  0  0
 29  1  2  0  0  0  0
 31 30  1  0  0  0  0
 32 29  1  0  0  0  0
 33 38  2  0  0  0  0
 33 34  1  0  0  0  0
 34 35  2  0  0  0  0
 35 36  1  0  0  0  0
 37 36  2  0  0  0  0
 38 37  1  0  0  0  0
M  END
>  <minimizedAffinity>
-7.02296543

$$$$
