
 OpenBabel09122223403D

 38 40  0  0  0  0  0  0  0  0999 V2000
    9.4940    9.2960   -0.3170 C   0  0  0  0  0  0  0  0  0  0  0  0
   10.1170    8.2930   -0.9700 C   0  0  0  0  0  2  0  0  0  0  0  0
   10.3540    6.9220   -0.4980 C   0  0  0  0  0  0  0  0  0  0  0  0
   11.6240    6.4400   -0.1670 C   0  0  0  0  0  3  0  0  0  0  0  0
   11.7810    5.1310    0.3090 C   0  0  0  0  0  3  0  0  0  0  0  0
   10.6660    4.3040    0.4710 C   0  0  0  0  0  0  0  0  0  0  0  0
    9.4000    4.7830    0.1320 C   0  0  0  0  0  3  0  0  0  0  0  0
    9.2430    6.0850   -0.3420 C   0  0  0  0  0  3  0  0  0  0  0  0
   10.6850    3.0040    0.9290 O   0  0  0  0  0  0  0  0  0  0  0  0
   10.8690    1.9940    0.0190 C   0  0  0  0  0  0  0  0  0  0  0  0
   11.6300    2.2930   -1.1160 C   0  0  0  0  0  3  0  0  0  0  0  0
   11.8030    1.3330   -2.1120 C   0  0  0  0  0  3  0  0  0  0  0  0
   11.2050    0.0790   -1.9830 C   0  0  0  0  0  3  0  0  0  0  0  0
   10.4230   -0.2120   -0.8630 C   0  0  0  0  0  3  0  0  0  0  0  0
   10.2430    0.7490    0.1350 C   0  0  0  0  0  0  0  0  0  0  0  0
    9.1140    0.3180    1.5970 Br  0  0  0  0  0  0  0  0  0  0  0  0
    9.1900   10.9090   -2.1140 O   0  0  0  0  0  0  0  0  0  0  0  0
    9.6350   10.6500   -1.0010 C   0  0  0  0  0  0  0  0  0  0  0  0
   10.4760   11.5040   -0.3560 N   0  0  0  0  0  0  0  0  0  0  0  0
   11.0540   12.1000   -0.9320 H   0  0  0  0  0  0  0  0  0  0  0  0
   10.7620   11.1950    0.9500 C   0  0  0  0  0  0  0  0  0  0  0  0
    9.8090   11.9460    2.2820 C   0  0  0  0  0  3  0  0  0  0  0  0
   10.4490   11.8900    3.9670 C   0  0  0  0  0  3  0  0  0  0  0  0
   12.0320   11.0300    4.3180 C   0  0  0  0  0  0  0  0  0  0  0  0
   12.9840   10.2710    3.0010 C   0  0  0  0  0  3  0  0  0  0  0  0
   12.3890   10.3660    1.3020 C   0  0  0  0  0  3  0  0  0  0  0  0
   12.5550   11.0550    5.5760 O   0  0  0  0  0  0  0  0  0  0  0  0
   12.2120   11.8750    5.9730 H   0  0  0  0  0  0  0  0  0  0  0  0
    8.9680    9.1210    0.9690 N   0  0  0  0  0  4  0  0  0  0  0  0
    9.1040    8.2840    2.2770 C   0  0  0  0  0  2  0  0  0  0  0  0
    7.9530    8.7300    2.6520 O   0  0  0  0  0  1  0  0  0  0  0  0
    8.1570    9.7070    1.1510 H   0  0  0  0  0  0  0  0  0  0  0  0
   10.5800    6.9760    3.1390 C   0  0  0  0  0  3  0  0  0  0  0  0
   12.0040    7.2560    3.6360 C   0  0  0  0  0  3  0  0  0  0  0  0
   12.9740    6.4070    4.2550 C   0  0  0  0  0  3  0  0  0  0  0  0
   12.7130    5.0820    4.4890 C   0  0  0  0  0  3  0  0  0  0  0  0
   11.4940    4.6040    4.0870 C   0  0  0  0  0  3  0  0  0  0  0  0
   10.5370    5.4650    3.4690 C   0  0  0  0  0  3  0  0  0  0  0  0
  1 29  2  0  0  0  0
  2  3  1  0  0  0  0
  2  1  1  0  0  0  0
  3  8  2  0  0  0  0
  3  4  1  0  0  0  0
  4  5  2  0  0  0  0
  5  6  1  0  0  0  0
  6  9  1  0  0  0  0
  7  6  2  0  0  0  0
  8  7  1  0  0  0  0
 10 15  1  0  0  0  0
 10  9  1  0  0  0  0
 11 10  2  0  0  0  0
 12 13  2  0  0  0  0
 12 11  1  0  0  0  0
 13 14  1  0  0  0  0
 14 15  2  0  0  0  0
 15 16  1  0  0  0  0
 17 18  2  0  0  0  0
 18 19  1  0  0  0  0
 18  1  1  0  0  0  0
 19 21  1  0  0  0  0
 20 19  1  0  0  0  0
 21 26  2  0  0  0  0
 21 22  1  0  0  0  0
 22 23  2  0  0  0  0
 23 24  1  0  0  0  0
 24 27  1  0  0  0  0
 25 24  2  0  0  0  0
 26 25  1  0  0  0  0
 27 28  1  0  0  0  0
 29 32  1  0  0  0  0
 29 30  1  0  0  0  0
 30 31  1  0  0  0  0
 33 38  2  0  0  0  0
 33 34  1  0  0  0  0
 34 35  2  0  0  0  0
 35 36  1  0  0  0  0
 37 36  2  0  0  0  0
 38 37  1  0  0  0  0
M  END
>  <minimizedAffinity>
-7.64902163

$$$$

 OpenBabel09122223403D

 38 40  0  0  0  0  0  0  0  0999 V2000
    6.9150   -3.1790    6.2410 C   0  0  0  0  0  0  0  0  0  0  0  0
    8.1400   -3.0140    5.6990 C   0  0  0  0  0  2  0  0  0  0  0  0
    8.4710   -2.6840    4.3060 C   0  0  0  0  0  0  0  0  0  0  0  0
    8.0870   -3.4810    3.2230 C   0  0  0  0  0  3  0  0  0  0  0  0
    8.4050   -3.0950    1.9140 C   0  0  0  0  0  3  0  0  0  0  0  0
    9.0950   -1.9020    1.6820 C   0  0  0  0  0  0  0  0  0  0  0  0
    9.4850   -1.1110    2.7630 C   0  0  0  0  0  3  0  0  0  0  0  0
    9.1690   -1.4950    4.0660 C   0  0  0  0  0  3  0  0  0  0  0  0
    9.4660   -1.4120    0.4480 O   0  0  0  0  0  0  0  0  0  0  0  0
   10.4910   -2.0320   -0.2200 C   0  0  0  0  0  0  0  0  0  0  0  0
   11.0400   -3.1720    0.3770 C   0  0  0  0  0  3  0  0  0  0  0  0
   12.1260   -3.8150   -0.2150 C   0  0  0  0  0  3  0  0  0  0  0  0
   12.6750   -3.3130   -1.3950 C   0  0  0  0  0  3  0  0  0  0  0  0
   12.1440   -2.1600   -1.9800 C   0  0  0  0  0  3  0  0  0  0  0  0
   11.0590   -1.5100   -1.3860 C   0  0  0  0  0  0  0  0  0  0  0  0
   10.4290    0.0890   -2.1890 Br  0  0  0  0  0  0  0  0  0  0  0  0
    6.5030   -4.8530    7.9580 O   0  0  0  0  0  0  0  0  0  0  0  0
    6.9430   -3.7500    7.6520 C   0  0  0  0  0  0  0  0  0  0  0  0
    7.3230   -2.8500    8.6000 N   0  0  0  0  0  0  0  0  0  0  0  0
    6.8590   -2.9030    9.4960 H   0  0  0  0  0  0  0  0  0  0  0  0
    7.9670   -1.7280    8.1400 C   0  0  0  0  0  0  0  0  0  0  0  0
    9.7650   -1.7070    8.0200 C   0  0  0  0  0  3  0  0  0  0  0  0
   10.6200   -0.1290    7.8440 C   0  0  0  0  0  3  0  0  0  0  0  0
    9.6560    1.4290    7.7370 C   0  0  0  0  0  0  0  0  0  0  0  0
    7.8660    1.4180    7.8460 C   0  0  0  0  0  3  0  0  0  0  0  0
    6.9960   -0.1420    8.0790 C   0  0  0  0  0  3  0  0  0  0  0  0
   10.3040    2.6270    7.6830 O   0  0  0  0  0  0  0  0  0  0  0  0
   11.1540    2.4710    8.1310 H   0  0  0  0  0  0  0  0  0  0  0  0
    5.7490   -3.0400    5.4770 N   0  0  0  0  0  4  0  0  0  0  0  0
    4.9380   -3.6590    4.2990 C   0  0  0  0  0  2  0  0  0  0  0  0
    4.2380   -2.5770    4.2440 O   0  0  0  0  0  1  0  0  0  0  0  0
    5.2190   -2.2030    5.7100 H   0  0  0  0  0  0  0  0  0  0  0  0
    4.9300   -5.5290    3.2320 C   0  0  0  0  0  3  0  0  0  0  0  0
    4.1650   -6.8320    3.4930 C   0  0  0  0  0  3  0  0  0  0  0  0
    4.1150   -8.0610    2.7630 C   0  0  0  0  0  3  0  0  0  0  0  0
    4.8450   -8.2380    1.6170 C   0  0  0  0  0  3  0  0  0  0  0  0
    5.6390   -7.1980    1.2140 C   0  0  0  0  0  3  0  0  0  0  0  0
    5.6790   -5.9770    1.9540 C   0  0  0  0  0  3  0  0  0  0  0  0
  1 18  1  0  0  0  0
  2  1  1  0  0  0  0
  3  2  1  0  0  0  0
  4  3  2  0  0  0  0
  5  4  1  0  0  0  0
  6  5  2  0  0  0  0
  6  7  1  0  0  0  0
  7  8  2  0  0  0  0
  8  3  1  0  0  0  0
  9  6  1  0  0  0  0
 10 11  1  0  0  0  0
 10  9  1  0  0  0  0
 12 11  2  0  0  0  0
 13 12  1  0  0  0  0
 14 13  2  0  0  0  0
 14 15  1  0  0  0  0
 15 10  2  0  0  0  0
 16 15  1  0  0  0  0
 18 17  2  0  0  0  0
 18 19  1  0  0  0  0
 19 20  1  0  0  0  0
 21 19  1  0  0  0  0
 22 21  2  0  0  0  0
 23 22  1  0  0  0  0
 24 23  2  0  0  0  0
 24 25  1  0  0  0  0
 25 26  2  0  0  0  0
 26 21  1  0  0  0  0
 27 24  1  0  0  0  0
 27 28  1  0  0  0  0
 29 32  1  0  0  0  0
 29  1  2  0  0  0  0
 30 29  1  0  0  0  0
 31 30  1  0  0  0  0
 33 34  1  0  0  0  0
 35 34  2  0  0  0  0
 36 35  1  0  0  0  0
 37 36  2  0  0  0  0
 37 38  1  0  0  0  0
 38 33  2  0  0  0  0
M  END
>  <minimizedAffinity>
-7.5794301

$$$$

 OpenBabel09122223403D

 38 40  0  0  0  0  0  0  0  0999 V2000
    9.3330   10.1650    0.8370 C   0  0  0  0  0  0  0  0  0  0  0  0
    9.1450    9.1460    1.7010 C   0  0  0  0  0  2  0  0  0  0  0  0
    9.8890    7.8820    1.7780 C   0  0  0  0  0  0  0  0  0  0  0  0
   10.7920    7.5900    2.8050 C   0  0  0  0  0  3  0  0  0  0  0  0
   11.4480    6.3520    2.8410 C   0  0  0  0  0  3  0  0  0  0  0  0
   11.1910    5.3940    1.8570 C   0  0  0  0  0  0  0  0  0  0  0  0
   10.2960    5.6870    0.8270 C   0  0  0  0  0  3  0  0  0  0  0  0
    9.6440    6.9200    0.7910 C   0  0  0  0  0  3  0  0  0  0  0  0
   11.7660    4.1430    1.7800 O   0  0  0  0  0  0  0  0  0  0  0  0
   10.9410    3.0470    1.7430 C   0  0  0  0  0  0  0  0  0  0  0  0
   10.2860    2.7050    2.9300 C   0  0  0  0  0  3  0  0  0  0  0  0
    9.4830    1.5670    2.9810 C   0  0  0  0  0  3  0  0  0  0  0  0
    9.3460    0.7600    1.8510 C   0  0  0  0  0  3  0  0  0  0  0  0
   10.0200    1.0850    0.6720 C   0  0  0  0  0  3  0  0  0  0  0  0
   10.8300    2.2230    0.6190 C   0  0  0  0  0  0  0  0  0  0  0  0
   11.7750    2.5720   -0.9880 Br  0  0  0  0  0  0  0  0  0  0  0  0
    7.2370   11.2030    0.1670 O   0  0  0  0  0  0  0  0  0  0  0  0
    8.2320   11.2160    0.8840 C   0  0  0  0  0  0  0  0  0  0  0  0
    8.5370   12.2950    1.6560 N   0  0  0  0  0  0  0  0  0  0  0  0
    8.2200   13.1970    1.3290 H   0  0  0  0  0  0  0  0  0  0  0  0
    9.5670   12.1250    2.5470 C   0  0  0  0  0  0  0  0  0  0  0  0
    9.2340   11.4750    4.1940 C   0  0  0  0  0  3  0  0  0  0  0  0
   10.4780   11.6610    5.4860 C   0  0  0  0  0  3  0  0  0  0  0  0
   12.0850   12.4600    5.1020 C   0  0  0  0  0  0  0  0  0  0  0  0
   12.4300   13.1020    3.4630 C   0  0  0  0  0  3  0  0  0  0  0  0
   11.1780   12.9770    2.1750 C   0  0  0  0  0  3  0  0  0  0  0  0
   12.9930   12.6710    6.0960 O   0  0  0  0  0  0  0  0  0  0  0  0
   12.4630   12.7410    6.9080 H   0  0  0  0  0  0  0  0  0  0  0  0
   10.3310   10.1210   -0.1450 N   0  0  0  0  0  4  0  0  0  0  0  0
   10.5880    9.8820   -1.6640 C   0  0  0  0  0  2  0  0  0  0  0  0
   11.8470    9.7640   -1.4070 O   0  0  0  0  0  1  0  0  0  0  0  0
   11.2680   10.2340    0.2350 H   0  0  0  0  0  0  0  0  0  0  0  0
    9.3900    9.8180   -3.4520 C   0  0  0  0  0  3  0  0  0  0  0  0
    8.9260    8.6340   -4.3080 C   0  0  0  0  0  3  0  0  0  0  0  0
    8.0900    8.5760   -5.4670 C   0  0  0  0  0  3  0  0  0  0  0  0
    7.5580    9.7130   -6.0180 C   0  0  0  0  0  3  0  0  0  0  0  0
    7.8770   10.9040   -5.4240 C   0  0  0  0  0  3  0  0  0  0  0  0
    8.7140   10.9460   -4.2670 C   0  0  0  0  0  3  0  0  0  0  0  0
  1 18  1  0  0  0  0
  1  2  1  0  0  0  0
  2  3  1  0  0  0  0
  3  4  1  0  0  0  0
  4  5  2  0  0  0  0
  6  5  1  0  0  0  0
  7  6  2  0  0  0  0
  8  7  1  0  0  0  0
  8  3  2  0  0  0  0
  9  6  1  0  0  0  0
 10  9  1  0  0  0  0
 10 11  1  0  0  0  0
 11 12  2  0  0  0  0
 13 12  1  0  0  0  0
 14 13  2  0  0  0  0
 15 14  1  0  0  0  0
 15 10  2  0  0  0  0
 16 15  1  0  0  0  0
 17 18  2  0  0  0  0
 18 19  1  0  0  0  0
 19 21  1  0  0  0  0
 20 19  1  0  0  0  0
 21 22  1  0  0  0  0
 22 23  2  0  0  0  0
 24 23  1  0  0  0  0
 24 27  1  0  0  0  0
 25 24  2  0  0  0  0
 26 21  2  0  0  0  0
 26 25  1  0  0  0  0
 27 28  1  0  0  0  0
 29 32  1  0  0  0  0
 29  1  2  0  0  0  0
 30 31  1  0  0  0  0
 30 29  1  0  0  0  0
 34 33  2  0  0  0  0
 35 34  1  0  0  0  0
 36 35  2  0  0  0  0
 36 37  1  0  0  0  0
 37 38  2  0  0  0  0
 38 33  1  0  0  0  0
M  END
>  <minimizedAffinity>
-7.34241915

$$$$

 OpenBabel09122223403D

 38 40  0  0  0  0  0  0  0  0999 V2000
    8.8190   11.0780    0.5600 C   0  0  0  0  0  0  0  0  0  0  0  0
    8.4810    9.7720    0.5810 C   0  0  0  0  0  2  0  0  0  0  0  0
    9.3420    8.6240    0.8990 C   0  0  0  0  0  0  0  0  0  0  0  0
    9.6250    8.2230    2.2080 C   0  0  0  0  0  3  0  0  0  0  0  0
   10.4280    7.1000    2.4460 C   0  0  0  0  0  3  0  0  0  0  0  0
   10.9380    6.3620    1.3740 C   0  0  0  0  0  0  0  0  0  0  0  0
   10.6630    6.7670    0.0670 C   0  0  0  0  0  3  0  0  0  0  0  0
    9.8640    7.8860   -0.1700 C   0  0  0  0  0  3  0  0  0  0  0  0
   11.7360    5.2420    1.4730 O   0  0  0  0  0  0  0  0  0  0  0  0
   11.1440    4.0470    1.7970 C   0  0  0  0  0  0  0  0  0  0  0  0
   10.4020    3.4130    0.7950 C   0  0  0  0  0  3  0  0  0  0  0  0
    9.7230    2.2280    1.0750 C   0  0  0  0  0  3  0  0  0  0  0  0
    9.7720    1.6840    2.3580 C   0  0  0  0  0  3  0  0  0  0  0  0
   10.4910    2.3280    3.3660 C   0  0  0  0  0  3  0  0  0  0  0  0
   11.1690    3.5190    3.0910 C   0  0  0  0  0  0  0  0  0  0  0  0
   12.0700    4.3840    4.5190 Br  0  0  0  0  0  0  0  0  0  0  0  0
    6.7520   12.3600    0.5630 O   0  0  0  0  0  0  0  0  0  0  0  0
    7.7460   11.9760   -0.0420 C   0  0  0  0  0  0  0  0  0  0  0  0
    7.8770   12.1630   -1.3840 N   0  0  0  0  0  0  0  0  0  0  0  0
    7.0260   12.2100   -1.9260 H   0  0  0  0  0  0  0  0  0  0  0  0
    9.1050   11.8570   -1.9170 C   0  0  0  0  0  0  0  0  0  0  0  0
   10.3690   13.1330   -2.0570 C   0  0  0  0  0  3  0  0  0  0  0  0
   11.7890   12.8560   -3.1330 C   0  0  0  0  0  3  0  0  0  0  0  0
   11.9620   11.2640   -4.0310 C   0  0  0  0  0  0  0  0  0  0  0  0
   10.7140    9.9840   -3.8910 C   0  0  0  0  0  3  0  0  0  0  0  0
    9.2590   10.2650   -2.8650 C   0  0  0  0  0  3  0  0  0  0  0  0
   12.9930   11.0850   -4.9040 O   0  0  0  0  0  0  0  0  0  0  0  0
   13.2180   11.9800   -5.2120 H   0  0  0  0  0  0  0  0  0  0  0  0
   10.1180   11.5060    0.8610 N   0  0  0  0  0  4  0  0  0  0  0  0
   11.1120   11.7730    2.0320 C   0  0  0  0  0  2  0  0  0  0  0  0
   11.8640   12.4250    1.2120 O   0  0  0  0  0  1  0  0  0  0  0  0
   10.6350   11.8160    0.0420 H   0  0  0  0  0  0  0  0  0  0  0  0
   11.2320   11.2540    4.1180 C   0  0  0  0  0  3  0  0  0  0  0  0
   10.7000   11.9710    5.3640 C   0  0  0  0  0  3  0  0  0  0  0  0
   10.7310   11.6110    6.7480 C   0  0  0  0  0  3  0  0  0  0  0  0
   11.3240   10.4490    7.1670 C   0  0  0  0  0  3  0  0  0  0  0  0
   11.9030    9.6610    6.2090 C   0  0  0  0  0  3  0  0  0  0  0  0
   11.8650   10.0350    4.8310 C   0  0  0  0  0  3  0  0  0  0  0  0
  1  2  1  0  0  0  0
  1 29  2  0  0  0  0
  2  3  1  0  0  0  0
  3  4  1  0  0  0  0
  4  5  2  0  0  0  0
  6  9  1  0  0  0  0
  6  5  1  0  0  0  0
  7  6  2  0  0  0  0
  8  7  1  0  0  0  0
  8  3  2  0  0  0  0
  9 10  1  0  0  0  0
 10 15  1  0  0  0  0
 11 12  1  0  0  0  0
 11 10  2  0  0  0  0
 12 13  2  0  0  0  0
 13 14  1  0  0  0  0
 15 14  2  0  0  0  0
 15 16  1  0  0  0  0
 18  1  1  0  0  0  0
 18 17  2  0  0  0  0
 19 18  1  0  0  0  0
 20 19  1  0  0  0  0
 21 19  1  0  0  0  0
 22 21  1  0  0  0  0
 23 22  2  0  0  0  0
 24 25  2  0  0  0  0
 24 23  1  0  0  0  0
 25 26  1  0  0  0  0
 26 21  2  0  0  0  0
 27 24  1  0  0  0  0
 28 27  1  0  0  0  0
 29 30  1  0  0  0  0
 31 30  1  0  0  0  0
 32 29  1  0  0  0  0
 33 38  2  0  0  0  0
 33 34  1  0  0  0  0
 34 35  2  0  0  0  0
 35 36  1  0  0  0  0
 37 36  2  0  0  0  0
 38 37  1  0  0  0  0
M  END
>  <minimizedAffinity>
-7.22604465

$$$$

 OpenBabel09122223403D

 38 40  0  0  0  0  0  0  0  0999 V2000
    8.6810   -3.1550    1.2990 C   0  0  0  0  0  0  0  0  0  0  0  0
    8.2280   -4.0340    2.2180 C   0  0  0  0  0  2  0  0  0  0  0  0
    7.5760   -3.7390    3.5010 C   0  0  0  0  0  0  0  0  0  0  0  0
    6.2340   -4.0340    3.7590 C   0  0  0  0  0  3  0  0  0  0  0  0
    5.6770   -3.7580    5.0150 C   0  0  0  0  0  3  0  0  0  0  0  0
    6.4660   -3.2000    6.0250 C   0  0  0  0  0  0  0  0  0  0  0  0
    7.8030   -2.8970    5.7650 C   0  0  0  0  0  3  0  0  0  0  0  0
    8.3570   -3.1720    4.5140 C   0  0  0  0  0  3  0  0  0  0  0  0
    6.0430   -2.8830    7.2970 O   0  0  0  0  0  0  0  0  0  0  0  0
    4.7240   -2.5490    7.4820 C   0  0  0  0  0  0  0  0  0  0  0  0
    4.3690   -1.2150    7.2560 C   0  0  0  0  0  3  0  0  0  0  0  0
    3.0610   -0.7940    7.4850 C   0  0  0  0  0  3  0  0  0  0  0  0
    2.1090   -1.6990    7.9550 C   0  0  0  0  0  3  0  0  0  0  0  0
    2.4680   -3.0260    8.2060 C   0  0  0  0  0  3  0  0  0  0  0  0
    3.7800   -3.4510    7.9820 C   0  0  0  0  0  0  0  0  0  0  0  0
    4.2220   -5.2450    8.4080 Br  0  0  0  0  0  0  0  0  0  0  0  0
   10.5940   -3.3620   -0.1900 O   0  0  0  0  0  0  0  0  0  0  0  0
    9.5150   -3.7980    0.1990 C   0  0  0  0  0  0  0  0  0  0  0  0
    8.8720   -4.7960   -0.4650 N   0  0  0  0  0  0  0  0  0  0  0  0
    9.0420   -4.8700   -1.4580 H   0  0  0  0  0  0  0  0  0  0  0  0
    7.7700   -5.3230    0.1620 C   0  0  0  0  0  0  0  0  0  0  0  0
    7.9590   -6.6980    1.3100 C   0  0  0  0  0  3  0  0  0  0  0  0
    6.5090   -7.6590    1.7860 C   0  0  0  0  0  3  0  0  0  0  0  0
    4.8530   -7.1990    1.1400 C   0  0  0  0  0  0  0  0  0  0  0  0
    4.6530   -5.8250    0.0040 C   0  0  0  0  0  3  0  0  0  0  0  0
    6.0980   -4.8890   -0.5270 C   0  0  0  0  0  3  0  0  0  0  0  0
    3.7700   -7.9710    1.4350 O   0  0  0  0  0  0  0  0  0  0  0  0
    4.1320   -8.8600    1.5900 H   0  0  0  0  0  0  0  0  0  0  0  0
    8.5650   -1.7720    1.4860 N   0  0  0  0  0  4  0  0  0  0  0  0
    9.1490   -0.3930    1.0530 C   0  0  0  0  0  2  0  0  0  0  0  0
    8.5430    0.1500    2.0550 O   0  0  0  0  0  1  0  0  0  0  0  0
    7.8880   -1.5230    2.2040 H   0  0  0  0  0  0  0  0  0  0  0  0
   10.3930    0.3350   -0.5460 C   0  0  0  0  0  3  0  0  0  0  0  0
   11.2080    1.6270   -0.6770 C   0  0  0  0  0  3  0  0  0  0  0  0
   12.0760    2.0970   -1.7110 C   0  0  0  0  0  3  0  0  0  0  0  0
   12.2910    1.3620   -2.8480 C   0  0  0  0  0  3  0  0  0  0  0  0
   11.6250    0.1700   -2.9570 C   0  0  0  0  0  3  0  0  0  0  0  0
   10.7610   -0.2850   -1.9150 C   0  0  0  0  0  3  0  0  0  0  0  0
  1 29  2  0  0  0  0
  1  2  1  0  0  0  0
  2  3  1  0  0  0  0
  3  4  2  0  0  0  0
  3  8  1  0  0  0  0
  4  5  1  0  0  0  0
  5  6  2  0  0  0  0
  6  9  1  0  0  0  0
  7  6  1  0  0  0  0
  8  7  2  0  0  0  0
  9 10  1  0  0  0  0
 10 15  1  0  0  0  0
 11 10  2  0  0  0  0
 11 12  1  0  0  0  0
 12 13  2  0  0  0  0
 13 14  1  0  0  0  0
 15 14  2  0  0  0  0
 15 16  1  0  0  0  0
 17 18  2  0  0  0  0
 18  1  1  0  0  0  0
 19 21  1  0  0  0  0
 19 18  1  0  0  0  0
 20 19  1  0  0  0  0
 21 22  1  0  0  0  0
 22 23  2  0  0  0  0
 24 27  1  0  0  0  0
 24 23  1  0  0  0  0
 25 24  2  0  0  0  0
 26 25  1  0  0  0  0
 26 21  2  0  0  0  0
 27 28  1  0  0  0  0
 29 32  1  0  0  0  0
 30 29  1  0  0  0  0
 30 31  1  0  0  0  0
 34 33  1  0  0  0  0
 35 34  2  0  0  0  0
 36 35  1  0  0  0  0
 37 36  2  0  0  0  0
 37 38  1  0  0  0  0
 38 33  2  0  0  0  0
M  END
>  <minimizedAffinity>
-7.06723595

$$$$

 OpenBabel09122223403D

 38 40  0  0  0  0  0  0  0  0999 V2000
    8.7650   -2.2450    6.0510 C   0  0  0  0  0  0  0  0  0  0  0  0
    9.6440   -1.5900    5.2630 C   0  0  0  0  0  2  0  0  0  0  0  0
    9.6150   -1.4560    3.8000 C   0  0  0  0  0  0  0  0  0  0  0  0
    9.2720   -0.2660    3.1510 C   0  0  0  0  0  3  0  0  0  0  0  0
    9.2950   -0.1910    1.7520 C   0  0  0  0  0  3  0  0  0  0  0  0
    9.6770   -1.3030    0.9960 C   0  0  0  0  0  0  0  0  0  0  0  0
   10.0110   -2.4930    1.6430 C   0  0  0  0  0  3  0  0  0  0  0  0
    9.9880   -2.5680    3.0360 C   0  0  0  0  0  3  0  0  0  0  0  0
    9.7420   -1.3590   -0.3800 O   0  0  0  0  0  0  0  0  0  0  0  0
   10.7880   -0.7320   -1.0090 C   0  0  0  0  0  0  0  0  0  0  0  0
   10.6960    0.6550   -1.1650 C   0  0  0  0  0  3  0  0  0  0  0  0
   11.6930    1.3470   -1.8520 C   0  0  0  0  0  3  0  0  0  0  0  0
   12.7740    0.6530   -2.3960 C   0  0  0  0  0  3  0  0  0  0  0  0
   12.8550   -0.7350   -2.2640 C   0  0  0  0  0  3  0  0  0  0  0  0
   11.8550   -1.4330   -1.5810 C   0  0  0  0  0  0  0  0  0  0  0  0
   11.9840   -3.3230   -1.4950 Br  0  0  0  0  0  0  0  0  0  0  0  0
    9.3430   -3.4570    8.0790 O   0  0  0  0  0  0  0  0  0  0  0  0
    9.2260   -2.3850    7.4950 C   0  0  0  0  0  0  0  0  0  0  0  0
    9.3130   -1.2010    8.1600 N   0  0  0  0  0  0  0  0  0  0  0  0
    9.0430   -1.2010    9.1340 H   0  0  0  0  0  0  0  0  0  0  0  0
    9.3490   -0.0730    7.3780 C   0  0  0  0  0  0  0  0  0  0  0  0
   10.8980    0.4470    6.6190 C   0  0  0  0  0  3  0  0  0  0  0  0
   11.0470    2.1240    5.9740 C   0  0  0  0  0  3  0  0  0  0  0  0
    9.6100    3.2650    6.0480 C   0  0  0  0  0  0  0  0  0  0  0  0
    8.0610    2.7540    6.7930 C   0  0  0  0  0  3  0  0  0  0  0  0
    7.9120    1.1010    7.4950 C   0  0  0  0  0  3  0  0  0  0  0  0
    9.7460    4.5560    5.6330 O   0  0  0  0  0  0  0  0  0  0  0  0
   10.6890    4.7610    5.7600 H   0  0  0  0  0  0  0  0  0  0  0  0
    7.6530   -2.9090    5.5160 N   0  0  0  0  0  4  0  0  0  0  0  0
    6.1350   -3.1920    5.7340 C   0  0  0  0  0  2  0  0  0  0  0  0
    6.2140   -4.1400    4.8620 O   0  0  0  0  0  1  0  0  0  0  0  0
    7.8810   -3.4750    4.7020 H   0  0  0  0  0  0  0  0  0  0  0  0
    4.5540   -2.3530    6.9280 C   0  0  0  0  0  3  0  0  0  0  0  0
    4.3840   -0.9530    7.5300 C   0  0  0  0  0  3  0  0  0  0  0  0
    3.3160   -0.3700    8.2820 C   0  0  0  0  0  3  0  0  0  0  0  0
    2.1940   -1.0910    8.6000 C   0  0  0  0  0  3  0  0  0  0  0  0
    2.1500   -2.3950    8.1850 C   0  0  0  0  0  3  0  0  0  0  0  0
    3.2250   -2.9620    7.4360 C   0  0  0  0  0  3  0  0  0  0  0  0
  1 18  1  0  0  0  0
  2  1  1  0  0  0  0
  3  2  1  0  0  0  0
  4  3  1  0  0  0  0
  5  4  2  0  0  0  0
  6  7  2  0  0  0  0
  6  5  1  0  0  0  0
  7  8  1  0  0  0  0
  8  3  2  0  0  0  0
  9  6  1  0  0  0  0
 10  9  1  0  0  0  0
 11 10  1  0  0  0  0
 12 11  2  0  0  0  0
 13 14  2  0  0  0  0
 13 12  1  0  0  0  0
 14 15  1  0  0  0  0
 15 16  1  0  0  0  0
 15 10  2  0  0  0  0
 18 17  2  0  0  0  0
 18 19  1  0  0  0  0
 19 20  1  0  0  0  0
 21 26  1  0  0  0  0
 21 19  1  0  0  0  0
 22 21  2  0  0  0  0
 23 24  2  0  0  0  0
 23 22  1  0  0  0  0
 24 25  1  0  0  0  0
 25 26  2  0  0  0  0
 27 28  1  0  0  0  0
 27 24  1  0  0  0  0
 29 30  1  0  0  0  0
 29  1  2  0  0  0  0
 31 30  1  0  0  0  0
 32 29  1  0  0  0  0
 33 38  2  0  0  0  0
 33 34  1  0  0  0  0
 34 35  2  0  0  0  0
 35 36  1  0  0  0  0
 37 36  2  0  0  0  0
 38 37  1  0  0  0  0
M  END
>  <minimizedAffinity>
-7.02296543

$$$$

 OpenBabel09122223403D

 38 40  0  0  0  0  0  0  0  0999 V2000
   10.2120    5.9200    0.7560 C   0  0  0  0  0  0  0  0  0  0  0  0
    9.8710    6.8580    1.6640 C   0  0  0  0  0  2  0  0  0  0  0  0
   10.6100    7.2530    2.8710 C   0  0  0  0  0  0  0  0  0  0  0  0
   10.8330    6.3870    3.9460 C   0  0  0  0  0  3  0  0  0  0  0  0
   11.5740    6.8130    5.0560 C   0  0  0  0  0  3  0  0  0  0  0  0
   12.1100    8.1040    5.0890 C   0  0  0  0  0  0  0  0  0  0  0  0
   11.8810    8.9710    4.0200 C   0  0  0  0  0  3  0  0  0  0  0  0
   11.1430    8.5470    2.9150 C   0  0  0  0  0  3  0  0  0  0  0  0
   12.8550    8.6420    6.1160 O   0  0  0  0  0  0  0  0  0  0  0  0
   12.3650    9.7450    6.7690 C   0  0  0  0  0  0  0  0  0  0  0  0
   12.8200   10.9940    6.3350 C   0  0  0  0  0  3  0  0  0  0  0  0
   12.4120   12.1530    6.9940 C   0  0  0  0  0  3  0  0  0  0  0  0
   11.5620   12.0640    8.0970 C   0  0  0  0  0  3  0  0  0  0  0  0
   11.1270   10.8160    8.5480 C   0  0  0  0  0  3  0  0  0  0  0  0
   11.5380    9.6520    7.8930 C   0  0  0  0  0  0  0  0  0  0  0  0
   10.9710    7.9840    8.5960 Br  0  0  0  0  0  0  0  0  0  0  0  0
    8.5640    4.5050   -0.3390 O   0  0  0  0  0  0  0  0  0  0  0  0
    9.1030    5.6020   -0.2380 C   0  0  0  0  0  0  0  0  0  0  0  0
    8.8880    6.5860   -1.1530 N   0  0  0  0  0  0  0  0  0  0  0  0
    8.6580    6.2960   -2.0930 H   0  0  0  0  0  0  0  0  0  0  0  0
    9.3970    7.8210   -0.8390 C   0  0  0  0  0  0  0  0  0  0  0  0
    8.3810    9.0140    0.0500 C   0  0  0  0  0  3  0  0  0  0  0  0
    8.8730   10.7490    0.0760 C   0  0  0  0  0  3  0  0  0  0  0  0
   10.4230   11.2740   -0.7560 C   0  0  0  0  0  0  0  0  0  0  0  0
   11.4470   10.0930   -1.6350 C   0  0  0  0  0  3  0  0  0  0  0  0
   10.9420    8.3650   -1.7200 C   0  0  0  0  0  3  0  0  0  0  0  0
   10.7540   12.5950   -0.8040 O   0  0  0  0  0  0  0  0  0  0  0  0
    9.9050   13.0680   -0.7550 H   0  0  0  0  0  0  0  0  0  0  0  0
   11.3920    5.1750    0.8770 N   0  0  0  0  0  4  0  0  0  0  0  0
   12.0540    3.8070    0.5310 C   0  0  0  0  0  2  0  0  0  0  0  0
   12.9930    4.0770    1.3740 O   0  0  0  0  0  1  0  0  0  0  0  0
   12.1020    5.6430    1.4360 H   0  0  0  0  0  0  0  0  0  0  0  0
   11.6360    2.1710   -0.8040 C   0  0  0  0  0  3  0  0  0  0  0  0
   12.4260    1.6210   -1.9970 C   0  0  0  0  0  3  0  0  0  0  0  0
   12.1830    0.5060   -2.8590 C   0  0  0  0  0  3  0  0  0  0  0  0
   11.0730   -0.2830   -2.7050 C   0  0  0  0  0  3  0  0  0  0  0  0
   10.1990    0.0540   -1.7060 C   0  0  0  0  0  3  0  0  0  0  0  0
   10.4560    1.1710   -0.8540 C   0  0  0  0  0  3  0  0  0  0  0  0
  1 29  2  0  0  0  0
  1  2  1  0  0  0  0
  2  3  1  0  0  0  0
  3  8  2  0  0  0  0
  3  4  1  0  0  0  0
  4  5  2  0  0  0  0
  5  6  1  0  0  0  0
  6  9  1  0  0  0  0
  7  6  2  0  0  0  0
  8  7  1  0  0  0  0
  9 10  1  0  0  0  0
 10 15  1  0  0  0  0
 11 10  2  0  0  0  0
 11 12  1  0  0  0  0
 12 13  2  0  0  0  0
 13 14  1  0  0  0  0
 15 14  2  0  0  0  0
 15 16  1  0  0  0  0
 17 18  2  0  0  0  0
 18  1  1  0  0  0  0
 19 21  1  0  0  0  0
 19 18  1  0  0  0  0
 20 19  1  0  0  0  0
 21 22  1  0  0  0  0
 22 23  2  0  0  0  0
 24 23  1  0  0  0  0
 25 24  2  0  0  0  0
 26 25  1  0  0  0  0
 26 21  2  0  0  0  0
 27 24  1  0  0  0  0
 27 28  1  0  0  0  0
 29 32  1  0  0  0  0
 30 29  1  0  0  0  0
 30 31  1  0  0  0  0
 34 33  2  0  0  0  0
 35 36  2  0  0  0  0
 35 34  1  0  0  0  0
 36 37  1  0  0  0  0
 37 38  2  0  0  0  0
 38 33  1  0  0  0  0
M  END
>  <minimizedAffinity>
-6.83454418

$$$$

 OpenBabel09122223403D

 38 40  0  0  0  0  0  0  0  0999 V2000
   11.4530   10.0640    1.9860 C   0  0  0  0  0  0  0  0  0  0  0  0
   12.3130    9.5090    1.1070 C   0  0  0  0  0  2  0  0  0  0  0  0
   12.2890    8.1450    0.5620 C   0  0  0  0  0  0  0  0  0  0  0  0
   11.6670    7.8180   -0.6480 C   0  0  0  0  0  3  0  0  0  0  0  0
   11.7060    6.5030   -1.1310 C   0  0  0  0  0  3  0  0  0  0  0  0
   12.3810    5.5120   -0.4130 C   0  0  0  0  0  0  0  0  0  0  0  0
   12.9940    5.8350    0.7970 C   0  0  0  0  0  3  0  0  0  0  0  0
   12.9550    7.1440    1.2790 C   0  0  0  0  0  3  0  0  0  0  0  0
   12.4930    4.1880   -0.7790 O   0  0  0  0  0  0  0  0  0  0  0  0
   11.5690    3.2960   -0.2950 C   0  0  0  0  0  0  0  0  0  0  0  0
   10.9130    3.6420    0.8910 C   0  0  0  0  0  3  0  0  0  0  0  0
   10.0080    2.7550    1.4720 C   0  0  0  0  0  3  0  0  0  0  0  0
    9.7690    1.5160    0.8780 C   0  0  0  0  0  3  0  0  0  0  0  0
   10.4420    1.1580   -0.2920 C   0  0  0  0  0  3  0  0  0  0  0  0
   11.3530    2.0420   -0.8750 C   0  0  0  0  0  0  0  0  0  0  0  0
   12.2860    1.4710   -2.4230 Br  0  0  0  0  0  0  0  0  0  0  0  0
   12.7690   11.5600    3.3810 O   0  0  0  0  0  0  0  0  0  0  0  0
   11.9110   11.4150    2.5180 C   0  0  0  0  0  0  0  0  0  0  0  0
   11.1450   12.4580    2.0960 N   0  0  0  0  0  0  0  0  0  0  0  0
   10.9780   13.2020    2.7580 H   0  0  0  0  0  0  0  0  0  0  0  0
   10.3490   12.2170    1.0030 C   0  0  0  0  0  0  0  0  0  0  0  0
   11.0290   12.3770   -0.6580 C   0  0  0  0  0  3  0  0  0  0  0  0
    9.9060   12.4930   -2.0650 C   0  0  0  0  0  3  0  0  0  0  0  0
    8.0920   12.3950   -1.8000 C   0  0  0  0  0  0  0  0  0  0  0  0
    7.4060   12.2250   -0.1510 C   0  0  0  0  0  3  0  0  0  0  0  0
    8.5100   12.1660    1.2720 C   0  0  0  0  0  3  0  0  0  0  0  0
    7.2420   12.5610   -2.8520 O   0  0  0  0  0  0  0  0  0  0  0  0
    7.7320   13.1160   -3.4830 H   0  0  0  0  0  0  0  0  0  0  0  0
   10.3680    9.3450    2.5050 N   0  0  0  0  0  4  0  0  0  0  0  0
    9.9620    8.0060    3.1920 C   0  0  0  0  0  2  0  0  0  0  0  0
    8.7280    8.2730    2.9260 O   0  0  0  0  0  1  0  0  0  0  0  0
    9.4760    9.8130    2.3620 H   0  0  0  0  0  0  0  0  0  0  0  0
   10.9870    6.4030    4.1990 C   0  0  0  0  0  3  0  0  0  0  0  0
   10.6900    4.8990    4.2560 C   0  0  0  0  0  3  0  0  0  0  0  0
   11.3900    3.8200    4.8800 C   0  0  0  0  0  3  0  0  0  0  0  0
   12.5390    4.0370    5.5960 C   0  0  0  0  0  3  0  0  0  0  0  0
   12.9730    5.3320    5.7050 C   0  0  0  0  0  3  0  0  0  0  0  0
   12.2610    6.3980    5.0770 C   0  0  0  0  0  3  0  0  0  0  0  0
  1 29  2  0  0  0  0
  1 18  1  0  0  0  0
  2  1  1  0  0  0  0
  3  2  1  0  0  0  0
  3  8  1  0  0  0  0
  4  3  2  0  0  0  0
  5  4  1  0  0  0  0
  5  6  2  0  0  0  0
  6  7  1  0  0  0  0
  7  8  2  0  0  0  0
  9  6  1  0  0  0  0
  9 10  1  0  0  0  0
 10 11  1  0  0  0  0
 11 12  2  0  0  0  0
 13 12  1  0  0  0  0
 14 13  2  0  0  0  0
 15 10  2  0  0  0  0
 15 14  1  0  0  0  0
 16 15  1  0  0  0  0
 18 17  2  0  0  0  0
 19 18  1  0  0  0  0
 19 20  1  0  0  0  0
 21 26  1  0  0  0  0
 21 19  1  0  0  0  0
 22 21  2  0  0  0  0
 23 24  2  0  0  0  0
 23 22  1  0  0  0  0
 24 25  1  0  0  0  0
 25 26  2  0  0  0  0
 27 24  1  0  0  0  0
 28 27  1  0  0  0  0
 29 30  1  0  0  0  0
 31 30  1  0  0  0  0
 32 29  1  0  0  0  0
 33 34  2  0  0  0  0
 33 38  1  0  0  0  0
 34 35  1  0  0  0  0
 35 36  2  0  0  0  0
 36 37  1  0  0  0  0
 38 37  2  0  0  0  0
M  END
>  <minimizedAffinity>
-6.7759881

$$$$

 OpenBabel09122223403D

 38 40  0  0  0  0  0  0  0  0999 V2000
    9.1250   10.8270    0.5330 C   0  0  0  0  0  0  0  0  0  0  0  0
    8.8850    9.7660    1.3320 C   0  0  0  0  0  2  0  0  0  0  0  0
    9.5740    8.4690    1.3360 C   0  0  0  0  0  0  0  0  0  0  0  0
    9.3080    7.4620    0.4020 C   0  0  0  0  0  3  0  0  0  0  0  0
   10.0220    6.2570    0.4380 C   0  0  0  0  0  3  0  0  0  0  0  0
   11.0180    6.0590    1.3990 C   0  0  0  0  0  0  0  0  0  0  0  0
   11.2770    7.0600    2.3360 C   0  0  0  0  0  3  0  0  0  0  0  0
   10.5660    8.2590    2.3010 C   0  0  0  0  0  3  0  0  0  0  0  0
   11.7890    4.9260    1.5400 O   0  0  0  0  0  0  0  0  0  0  0  0
   11.1720    3.7030    1.4590 C   0  0  0  0  0  0  0  0  0  0  0  0
   11.0870    3.1160    0.1930 C   0  0  0  0  0  3  0  0  0  0  0  0
   10.4180    1.9040    0.0290 C   0  0  0  0  0  3  0  0  0  0  0  0
    9.8200    1.2850    1.1260 C   0  0  0  0  0  3  0  0  0  0  0  0
    9.8820    1.8810    2.3870 C   0  0  0  0  0  3  0  0  0  0  0  0
   10.5470    3.0980    2.5550 C   0  0  0  0  0  0  0  0  0  0  0  0
   10.5370    3.8930    4.2770 Br  0  0  0  0  0  0  0  0  0  0  0  0
    7.0780   11.9900   -0.0810 O   0  0  0  0  0  0  0  0  0  0  0  0
    8.0700   11.9200    0.6370 C   0  0  0  0  0  0  0  0  0  0  0  0
    8.4160   12.9390    1.4700 N   0  0  0  0  0  0  0  0  0  0  0  0
    8.1400   13.8710    1.1940 H   0  0  0  0  0  0  0  0  0  0  0  0
    9.4340   12.6750    2.3530 C   0  0  0  0  0  0  0  0  0  0  0  0
   11.1480   12.8130    1.8180 C   0  0  0  0  0  3  0  0  0  0  0  0
   12.4490   12.0580    2.8130 C   0  0  0  0  0  3  0  0  0  0  0  0
   12.0230   11.2050    4.3820 C   0  0  0  0  0  0  0  0  0  0  0  0
   10.3200   11.0700    4.9280 C   0  0  0  0  0  3  0  0  0  0  0  0
    9.0010   11.7680    3.9180 C   0  0  0  0  0  3  0  0  0  0  0  0
   12.9940   10.5670    5.0940 O   0  0  0  0  0  0  0  0  0  0  0  0
   13.6650   10.3200    4.4340 H   0  0  0  0  0  0  0  0  0  0  0  0
   10.1290   10.8000   -0.4430 N   0  0  0  0  0  4  0  0  0  0  0  0
   10.4320   10.4160   -1.9230 C   0  0  0  0  0  2  0  0  0  0  0  0
   11.6920   10.5020   -1.6620 O   0  0  0  0  0  1  0  0  0  0  0  0
   11.0390   11.0850   -0.0860 H   0  0  0  0  0  0  0  0  0  0  0  0
    9.2720    9.9730   -3.6810 C   0  0  0  0  0  3  0  0  0  0  0  0
    8.9110    8.6340   -4.3360 C   0  0  0  0  0  3  0  0  0  0  0  0
    8.1010    8.3250   -5.4740 C   0  0  0  0  0  3  0  0  0  0  0  0
    7.4950    9.3140   -6.2040 C   0  0  0  0  0  3  0  0  0  0  0  0
    7.7140   10.6070   -5.8100 C   0  0  0  0  0  3  0  0  0  0  0  0
    8.5260   10.8980   -4.6720 C   0  0  0  0  0  3  0  0  0  0  0  0
  1 18  1  0  0  0  0
  1  2  1  0  0  0  0
  2  3  1  0  0  0  0
  3  8  1  0  0  0  0
  4  5  1  0  0  0  0
  4  3  2  0  0  0  0
  5  6  2  0  0  0  0
  6  9  1  0  0  0  0
  6  7  1  0  0  0  0
  8  7  2  0  0  0  0
 10  9  1  0  0  0  0
 10 15  1  0  0  0  0
 11 10  2  0  0  0  0
 12 11  1  0  0  0  0
 12 13  2  0  0  0  0
 13 14  1  0  0  0  0
 14 15  2  0  0  0  0
 15 16  1  0  0  0  0
 17 18  2  0  0  0  0
 18 19  1  0  0  0  0
 19 21  1  0  0  0  0
 20 19  1  0  0  0  0
 21 26  1  0  0  0  0
 22 21  2  0  0  0  0
 22 23  1  0  0  0  0
 23 24  2  0  0  0  0
 24 25  1  0  0  0  0
 24 27  1  0  0  0  0
 26 25  2  0  0  0  0
 28 27  1  0  0  0  0
 29 32  1  0  0  0  0
 29  1  2  3  0  0  0
 30 31  1  0  0  0  0
 30 29  1  0  0  0  0
 34 33  1  0  0  0  0
 35 34  2  0  0  0  0
 36 37  2  0  0  0  0
 36 35  1  0  0  0  0
 37 38  1  0  0  0  0
 38 33  2  0  0  0  0
M  END
>  <minimizedAffinity>
-6.66199684

$$$$

 OpenBabel09122223403D

 38 40  0  0  0  0  0  0  0  0999 V2000
   10.8030    3.9270    3.8590 C   0  0  0  0  0  0  0  0  0  0  0  0
    9.9040    2.9200    3.8790 C   0  0  0  0  0  2  0  0  0  0  0  0
    9.7370    1.8430    2.8940 C   0  0  0  0  0  0  0  0  0  0  0  0
    9.7510    2.0640    1.5130 C   0  0  0  0  0  3  0  0  0  0  0  0
    9.6200    0.9900    0.6230 C   0  0  0  0  0  3  0  0  0  0  0  0
    9.4900   -0.3140    1.1110 C   0  0  0  0  0  0  0  0  0  0  0  0
    9.4680   -0.5340    2.4880 C   0  0  0  0  0  3  0  0  0  0  0  0
    9.5980    0.5360    3.3740 C   0  0  0  0  0  3  0  0  0  0  0  0
    9.3560   -1.4510    0.3450 O   0  0  0  0  0  0  0  0  0  0  0  0
   10.4930   -2.0640   -0.1200 C   0  0  0  0  0  0  0  0  0  0  0  0
   11.0730   -3.0340    0.7030 C   0  0  0  0  0  3  0  0  0  0  0  0
   12.2640   -3.6500    0.3220 C   0  0  0  0  0  3  0  0  0  0  0  0
   12.8840   -3.2880   -0.8730 C   0  0  0  0  0  3  0  0  0  0  0  0
   12.3200   -2.3010   -1.6850 C   0  0  0  0  0  3  0  0  0  0  0  0
   11.1290   -1.6770   -1.3030 C   0  0  0  0  0  0  0  0  0  0  0  0
   10.4500   -0.2960   -2.4120 Br  0  0  0  0  0  0  0  0  0  0  0  0
   10.2900    6.1710    4.6460 O   0  0  0  0  0  0  0  0  0  0  0  0
   10.5400    5.0000    4.9070 C   0  0  0  0  0  0  0  0  0  0  0  0
   10.8020    4.5980    6.1810 N   0  0  0  0  0  0  0  0  0  0  0  0
   11.2070    5.2820    6.8040 H   0  0  0  0  0  0  0  0  0  0  0  0
   10.8880    3.2420    6.3780 C   0  0  0  0  0  0  0  0  0  0  0  0
    9.4360    2.3150    6.9070 C   0  0  0  0  0  3  0  0  0  0  0  0
    9.6430    0.6550    7.5780 C   0  0  0  0  0  3  0  0  0  0  0  0
   11.3170   -0.0950    7.6700 C   0  0  0  0  0  0  0  0  0  0  0  0
   12.7680    0.8150    7.1370 C   0  0  0  0  0  3  0  0  0  0  0  0
   12.5870    2.4970    6.5170 C   0  0  0  0  0  3  0  0  0  0  0  0
   11.4830   -1.3170    8.2490 O   0  0  0  0  0  0  0  0  0  0  0  0
   10.7510   -1.3930    8.8850 H   0  0  0  0  0  0  0  0  0  0  0  0
   11.7390    4.0550    2.8260 N   0  0  0  0  0  4  0  0  0  0  0  0
   11.9980    4.7250    1.4420 C   0  0  0  0  0  2  0  0  0  0  0  0
   12.9930    3.9220    1.2680 O   0  0  0  0  0  1  0  0  0  0  0  0
   12.5610    3.4710    2.9590 H   0  0  0  0  0  0  0  0  0  0  0  0
   11.1240    6.3300    0.3050 C   0  0  0  0  0  3  0  0  0  0  0  0
    9.7790    7.0520    0.4560 C   0  0  0  0  0  3  0  0  0  0  0  0
    9.2100    8.1510   -0.2620 C   0  0  0  0  0  3  0  0  0  0  0  0
    9.8780    8.7430   -1.3020 C   0  0  0  0  0  3  0  0  0  0  0  0
   11.1020    8.2260   -1.6350 C   0  0  0  0  0  3  0  0  0  0  0  0
   11.6560    7.1290   -0.9090 C   0  0  0  0  0  3  0  0  0  0  0  0
  1  2  1  0  0  0  0
  1 18  1  0  0  0  0
  3  8  1  0  0  0  0
  3  2  1  0  0  0  0
  4  3  2  0  0  0  0
  5  6  2  0  0  0  0
  5  4  1  0  0  0  0
  6  7  1  0  0  0  0
  7  8  2  0  0  0  0
  9  6  1  0  0  0  0
 10  9  1  0  0  0  0
 10 11  1  0  0  0  0
 12 11  2  0  0  0  0
 13 12  1  0  0  0  0
 14 15  1  0  0  0  0
 14 13  2  0  0  0  0
 15 10  2  0  0  0  0
 16 15  1  0  0  0  0
 17 18  2  0  0  0  0
 18 19  1  0  0  0  0
 19 21  1  0  0  0  0
 19 20  1  0  0  0  0
 21 26  2  0  0  0  0
 21 22  1  0  0  0  0
 22 23  2  0  0  0  0
 23 24  1  0  0  0  0
 24 27  1  0  0  0  0
 25 24  2  0  0  0  0
 26 25  1  0  0  0  0
 27 28  1  0  0  0  0
 29 32  1  0  0  0  0
 29  1  2  0  0  0  0
 30 29  1  0  0  0  0
 31 30  1  0  0  0  0
 33 34  1  0  0  0  0
 35 34  2  0  0  0  0
 36 35  1  0  0  0  0
 37 36  2  0  0  0  0
 37 38  1  0  0  0  0
 38 33  2  0  0  0  0
M  END
>  <minimizedAffinity>
-6.63610935

$$$$
