
 OpenBabel09132204463D

 38 40  0  0  0  0  0  0  0  0999 V2000
    9.4940    9.2960   -0.3170 C   0  0  0  0  0  0  0  0  0  0  0  0
   10.1170    8.2930   -0.9700 C   0  0  0  0  0  2  0  0  0  0  0  0
   10.3540    6.9220   -0.4980 C   0  0  0  0  0  0  0  0  0  0  0  0
   11.6240    6.4400   -0.1670 C   0  0  0  0  0  3  0  0  0  0  0  0
   11.7810    5.1310    0.3090 C   0  0  0  0  0  3  0  0  0  0  0  0
   10.6660    4.3040    0.4710 C   0  0  0  0  0  0  0  0  0  0  0  0
    9.4000    4.7830    0.1320 C   0  0  0  0  0  3  0  0  0  0  0  0
    9.2430    6.0850   -0.3420 C   0  0  0  0  0  3  0  0  0  0  0  0
   10.6850    3.0040    0.9290 O   0  0  0  0  0  0  0  0  0  0  0  0
   10.8690    1.9940    0.0190 C   0  0  0  0  0  0  0  0  0  0  0  0
   11.6300    2.2930   -1.1160 C   0  0  0  0  0  3  0  0  0  0  0  0
   11.8030    1.3330   -2.1120 C   0  0  0  0  0  3  0  0  0  0  0  0
   11.2050    0.0790   -1.9830 C   0  0  0  0  0  3  0  0  0  0  0  0
   10.4230   -0.2120   -0.8630 C   0  0  0  0  0  3  0  0  0  0  0  0
   10.2430    0.7490    0.1350 C   0  0  0  0  0  0  0  0  0  0  0  0
    9.1140    0.3180    1.5970 Br  0  0  0  0  0  0  0  0  0  0  0  0
    9.1900   10.9090   -2.1140 O   0  0  0  0  0  0  0  0  0  0  0  0
    9.6350   10.6500   -1.0010 C   0  0  0  0  0  0  0  0  0  0  0  0
   10.4760   11.5040   -0.3560 N   0  0  0  0  0  0  0  0  0  0  0  0
   11.0540   12.1000   -0.9320 H   0  0  0  0  0  0  0  0  0  0  0  0
   10.7620   11.1950    0.9500 C   0  0  0  0  0  0  0  0  0  0  0  0
    9.8090   11.9460    2.2820 C   0  0  0  0  0  3  0  0  0  0  0  0
   10.4490   11.8900    3.9670 C   0  0  0  0  0  3  0  0  0  0  0  0
   12.0320   11.0300    4.3180 C   0  0  0  0  0  0  0  0  0  0  0  0
   12.9840   10.2710    3.0010 C   0  0  0  0  0  3  0  0  0  0  0  0
   12.3890   10.3660    1.3020 C   0  0  0  0  0  3  0  0  0  0  0  0
   12.5550   11.0550    5.5760 O   0  0  0  0  0  0  0  0  0  0  0  0
   12.2120   11.8750    5.9730 H   0  0  0  0  0  0  0  0  0  0  0  0
    8.9680    9.1210    0.9690 N   0  0  0  0  0  4  0  0  0  0  0  0
    9.1040    8.2840    2.2770 C   0  0  0  0  0  2  0  0  0  0  0  0
    7.9530    8.7300    2.6520 O   0  0  0  0  0  1  0  0  0  0  0  0
    8.1570    9.7070    1.1510 H   0  0  0  0  0  0  0  0  0  0  0  0
   10.5800    6.9760    3.1390 C   0  0  0  0  0  3  0  0  0  0  0  0
   12.0040    7.2560    3.6360 C   0  0  0  0  0  3  0  0  0  0  0  0
   12.9740    6.4070    4.2550 C   0  0  0  0  0  3  0  0  0  0  0  0
   12.7130    5.0820    4.4890 C   0  0  0  0  0  3  0  0  0  0  0  0
   11.4940    4.6040    4.0870 C   0  0  0  0  0  3  0  0  0  0  0  0
   10.5370    5.4650    3.4690 C   0  0  0  0  0  3  0  0  0  0  0  0
  1 29  2  0  0  0  0
  2  3  1  0  0  0  0
  2  1  1  0  0  0  0
  3  8  2  0  0  0  0
  3  4  1  0  0  0  0
  4  5  2  0  0  0  0
  5  6  1  0  0  0  0
  6  9  1  0  0  0  0
  7  6  2  0  0  0  0
  8  7  1  0  0  0  0
 10 15  1  0  0  0  0
 10  9  1  0  0  0  0
 11 10  2  0  0  0  0
 12 13  2  0  0  0  0
 12 11  1  0  0  0  0
 13 14  1  0  0  0  0
 14 15  2  0  0  0  0
 15 16  1  0  0  0  0
 17 18  2  0  0  0  0
 18 19  1  0  0  0  0
 18  1  1  0  0  0  0
 19 21  1  0  0  0  0
 20 19  1  0  0  0  0
 21 26  2  0  0  0  0
 21 22  1  0  0  0  0
 22 23  2  0  0  0  0
 23 24  1  0  0  0  0
 24 27  1  0  0  0  0
 25 24  2  0  0  0  0
 26 25  1  0  0  0  0
 27 28  1  0  0  0  0
 29 32  1  0  0  0  0
 29 30  1  0  0  0  0
 30 31  1  0  0  0  0
 33 38  2  0  0  0  0
 33 34  1  0  0  0  0
 34 35  2  0  0  0  0
 35 36  1  0  0  0  0
 37 36  2  0  0  0  0
 38 37  1  0  0  0  0
M  END
>  <minimizedAffinity>
-7.64902163

$$$$
