
 OpenBabel09132204463D

 38 40  0  0  0  0  0  0  0  0999 V2000
    8.6810   -3.1550    1.2990 C   0  0  0  0  0  0  0  0  0  0  0  0
    8.2280   -4.0340    2.2180 C   0  0  0  0  0  2  0  0  0  0  0  0
    7.5760   -3.7390    3.5010 C   0  0  0  0  0  0  0  0  0  0  0  0
    6.2340   -4.0340    3.7590 C   0  0  0  0  0  3  0  0  0  0  0  0
    5.6770   -3.7580    5.0150 C   0  0  0  0  0  3  0  0  0  0  0  0
    6.4660   -3.2000    6.0250 C   0  0  0  0  0  0  0  0  0  0  0  0
    7.8030   -2.8970    5.7650 C   0  0  0  0  0  3  0  0  0  0  0  0
    8.3570   -3.1720    4.5140 C   0  0  0  0  0  3  0  0  0  0  0  0
    6.0430   -2.8830    7.2970 O   0  0  0  0  0  0  0  0  0  0  0  0
    4.7240   -2.5490    7.4820 C   0  0  0  0  0  0  0  0  0  0  0  0
    4.3690   -1.2150    7.2560 C   0  0  0  0  0  3  0  0  0  0  0  0
    3.0610   -0.7940    7.4850 C   0  0  0  0  0  3  0  0  0  0  0  0
    2.1090   -1.6990    7.9550 C   0  0  0  0  0  3  0  0  0  0  0  0
    2.4680   -3.0260    8.2060 C   0  0  0  0  0  3  0  0  0  0  0  0
    3.7800   -3.4510    7.9820 C   0  0  0  0  0  0  0  0  0  0  0  0
    4.2220   -5.2450    8.4080 Br  0  0  0  0  0  0  0  0  0  0  0  0
   10.5940   -3.3620   -0.1900 O   0  0  0  0  0  0  0  0  0  0  0  0
    9.5150   -3.7980    0.1990 C   0  0  0  0  0  0  0  0  0  0  0  0
    8.8720   -4.7960   -0.4650 N   0  0  0  0  0  0  0  0  0  0  0  0
    9.0420   -4.8700   -1.4580 H   0  0  0  0  0  0  0  0  0  0  0  0
    7.7700   -5.3230    0.1620 C   0  0  0  0  0  0  0  0  0  0  0  0
    7.9590   -6.6980    1.3100 C   0  0  0  0  0  3  0  0  0  0  0  0
    6.5090   -7.6590    1.7860 C   0  0  0  0  0  3  0  0  0  0  0  0
    4.8530   -7.1990    1.1400 C   0  0  0  0  0  0  0  0  0  0  0  0
    4.6530   -5.8250    0.0040 C   0  0  0  0  0  3  0  0  0  0  0  0
    6.0980   -4.8890   -0.5270 C   0  0  0  0  0  3  0  0  0  0  0  0
    3.7700   -7.9710    1.4350 O   0  0  0  0  0  0  0  0  0  0  0  0
    4.1320   -8.8600    1.5900 H   0  0  0  0  0  0  0  0  0  0  0  0
    8.5650   -1.7720    1.4860 N   0  0  0  0  0  4  0  0  0  0  0  0
    9.1490   -0.3930    1.0530 C   0  0  0  0  0  2  0  0  0  0  0  0
    8.5430    0.1500    2.0550 O   0  0  0  0  0  1  0  0  0  0  0  0
    7.8880   -1.5230    2.2040 H   0  0  0  0  0  0  0  0  0  0  0  0
   10.3930    0.3350   -0.5460 C   0  0  0  0  0  3  0  0  0  0  0  0
   11.2080    1.6270   -0.6770 C   0  0  0  0  0  3  0  0  0  0  0  0
   12.0760    2.0970   -1.7110 C   0  0  0  0  0  3  0  0  0  0  0  0
   12.2910    1.3620   -2.8480 C   0  0  0  0  0  3  0  0  0  0  0  0
   11.6250    0.1700   -2.9570 C   0  0  0  0  0  3  0  0  0  0  0  0
   10.7610   -0.2850   -1.9150 C   0  0  0  0  0  3  0  0  0  0  0  0
  1 29  2  0  0  0  0
  1  2  1  0  0  0  0
  2  3  1  0  0  0  0
  3  4  2  0  0  0  0
  3  8  1  0  0  0  0
  4  5  1  0  0  0  0
  5  6  2  0  0  0  0
  6  9  1  0  0  0  0
  7  6  1  0  0  0  0
  8  7  2  0  0  0  0
  9 10  1  0  0  0  0
 10 15  1  0  0  0  0
 11 10  2  0  0  0  0
 11 12  1  0  0  0  0
 12 13  2  0  0  0  0
 13 14  1  0  0  0  0
 15 14  2  0  0  0  0
 15 16  1  0  0  0  0
 17 18  2  0  0  0  0
 18  1  1  0  0  0  0
 19 21  1  0  0  0  0
 19 18  1  0  0  0  0
 20 19  1  0  0  0  0
 21 22  1  0  0  0  0
 22 23  2  0  0  0  0
 24 27  1  0  0  0  0
 24 23  1  0  0  0  0
 25 24  2  0  0  0  0
 26 25  1  0  0  0  0
 26 21  2  0  0  0  0
 27 28  1  0  0  0  0
 29 32  1  0  0  0  0
 30 29  1  0  0  0  0
 30 31  1  0  0  0  0
 34 33  1  0  0  0  0
 35 34  2  0  0  0  0
 36 35  1  0  0  0  0
 37 36  2  0  0  0  0
 37 38  1  0  0  0  0
 38 33  2  0  0  0  0
M  END
>  <minimizedAffinity>
-7.06723595

$$$$
