
 OpenBabel09132204463D

 38 40  0  0  0  0  0  0  0  0999 V2000
    8.8190   11.0780    0.5600 C   0  0  0  0  0  0  0  0  0  0  0  0
    8.4810    9.7720    0.5810 C   0  0  0  0  0  2  0  0  0  0  0  0
    9.3420    8.6240    0.8990 C   0  0  0  0  0  0  0  0  0  0  0  0
    9.6250    8.2230    2.2080 C   0  0  0  0  0  3  0  0  0  0  0  0
   10.4280    7.1000    2.4460 C   0  0  0  0  0  3  0  0  0  0  0  0
   10.9380    6.3620    1.3740 C   0  0  0  0  0  0  0  0  0  0  0  0
   10.6630    6.7670    0.0670 C   0  0  0  0  0  3  0  0  0  0  0  0
    9.8640    7.8860   -0.1700 C   0  0  0  0  0  3  0  0  0  0  0  0
   11.7360    5.2420    1.4730 O   0  0  0  0  0  0  0  0  0  0  0  0
   11.1440    4.0470    1.7970 C   0  0  0  0  0  0  0  0  0  0  0  0
   10.4020    3.4130    0.7950 C   0  0  0  0  0  3  0  0  0  0  0  0
    9.7230    2.2280    1.0750 C   0  0  0  0  0  3  0  0  0  0  0  0
    9.7720    1.6840    2.3580 C   0  0  0  0  0  3  0  0  0  0  0  0
   10.4910    2.3280    3.3660 C   0  0  0  0  0  3  0  0  0  0  0  0
   11.1690    3.5190    3.0910 C   0  0  0  0  0  0  0  0  0  0  0  0
   12.0700    4.3840    4.5190 Br  0  0  0  0  0  0  0  0  0  0  0  0
    6.7520   12.3600    0.5630 O   0  0  0  0  0  0  0  0  0  0  0  0
    7.7460   11.9760   -0.0420 C   0  0  0  0  0  0  0  0  0  0  0  0
    7.8770   12.1630   -1.3840 N   0  0  0  0  0  0  0  0  0  0  0  0
    7.0260   12.2100   -1.9260 H   0  0  0  0  0  0  0  0  0  0  0  0
    9.1050   11.8570   -1.9170 C   0  0  0  0  0  0  0  0  0  0  0  0
   10.3690   13.1330   -2.0570 C   0  0  0  0  0  3  0  0  0  0  0  0
   11.7890   12.8560   -3.1330 C   0  0  0  0  0  3  0  0  0  0  0  0
   11.9620   11.2640   -4.0310 C   0  0  0  0  0  0  0  0  0  0  0  0
   10.7140    9.9840   -3.8910 C   0  0  0  0  0  3  0  0  0  0  0  0
    9.2590   10.2650   -2.8650 C   0  0  0  0  0  3  0  0  0  0  0  0
   12.9930   11.0850   -4.9040 O   0  0  0  0  0  0  0  0  0  0  0  0
   13.2180   11.9800   -5.2120 H   0  0  0  0  0  0  0  0  0  0  0  0
   10.1180   11.5060    0.8610 N   0  0  0  0  0  4  0  0  0  0  0  0
   11.1120   11.7730    2.0320 C   0  0  0  0  0  2  0  0  0  0  0  0
   11.8640   12.4250    1.2120 O   0  0  0  0  0  1  0  0  0  0  0  0
   10.6350   11.8160    0.0420 H   0  0  0  0  0  0  0  0  0  0  0  0
   11.2320   11.2540    4.1180 C   0  0  0  0  0  3  0  0  0  0  0  0
   10.7000   11.9710    5.3640 C   0  0  0  0  0  3  0  0  0  0  0  0
   10.7310   11.6110    6.7480 C   0  0  0  0  0  3  0  0  0  0  0  0
   11.3240   10.4490    7.1670 C   0  0  0  0  0  3  0  0  0  0  0  0
   11.9030    9.6610    6.2090 C   0  0  0  0  0  3  0  0  0  0  0  0
   11.8650   10.0350    4.8310 C   0  0  0  0  0  3  0  0  0  0  0  0
  1  2  1  0  0  0  0
  1 29  2  0  0  0  0
  2  3  1  0  0  0  0
  3  4  1  0  0  0  0
  4  5  2  0  0  0  0
  6  9  1  0  0  0  0
  6  5  1  0  0  0  0
  7  6  2  0  0  0  0
  8  7  1  0  0  0  0
  8  3  2  0  0  0  0
  9 10  1  0  0  0  0
 10 15  1  0  0  0  0
 11 12  1  0  0  0  0
 11 10  2  0  0  0  0
 12 13  2  0  0  0  0
 13 14  1  0  0  0  0
 15 14  2  0  0  0  0
 15 16  1  0  0  0  0
 18  1  1  0  0  0  0
 18 17  2  0  0  0  0
 19 18  1  0  0  0  0
 20 19  1  0  0  0  0
 21 19  1  0  0  0  0
 22 21  1  0  0  0  0
 23 22  2  0  0  0  0
 24 25  2  0  0  0  0
 24 23  1  0  0  0  0
 25 26  1  0  0  0  0
 26 21  2  0  0  0  0
 27 24  1  0  0  0  0
 28 27  1  0  0  0  0
 29 30  1  0  0  0  0
 31 30  1  0  0  0  0
 32 29  1  0  0  0  0
 33 38  2  0  0  0  0
 33 34  1  0  0  0  0
 34 35  2  0  0  0  0
 35 36  1  0  0  0  0
 37 36  2  0  0  0  0
 38 37  1  0  0  0  0
M  END
>  <minimizedAffinity>
-7.22604465

$$$$
