
 OpenBabel09092211523D

 45 50  0  0  0  0  0  0  0  0999 V2000
    6.0470   -2.5680    1.0390 C   0  0  0  0  0  0  0  0  0  0  0  0
    5.0580   -2.1880    1.9390 C   0  0  0  0  0  3  0  0  0  0  0  0
    5.3970   -1.4610    3.0850 C   0  0  0  0  0  3  0  0  0  0  0  0
    6.7250   -1.0870    3.3530 C   0  0  0  0  0  0  0  0  0  0  0  0
    7.7350   -1.5130    2.4590 C   0  0  0  0  0  0  0  0  0  0  0  0
    7.3760   -2.2300    1.3030 C   0  0  0  0  0  3  0  0  0  0  0  0
    9.1720   -1.2270    2.6390 C   0  0  0  0  0  3  0  0  0  0  0  0
    9.7680   -1.2120    3.8450 C   0  0  0  0  0  0  0  0  0  0  0  0
    9.0730   -1.6020    5.1160 C   0  0  0  0  0  2  0  0  0  0  0  0
    8.0470   -0.6160    5.4350 N   0  0  0  0  0  0  0  0  0  0  0  0
    7.0010   -0.3060    4.5820 C   0  0  0  0  0  0  0  0  0  0  0  0
    6.3760    0.8280    5.1130 C   0  0  0  0  0  0  0  0  0  0  0  0
    6.9870    1.0920    6.3910 C   0  0  0  0  0  0  0  0  0  0  0  0
    6.7620    2.0410    7.4180 C   0  0  0  0  0  3  0  0  0  0  0  0
    7.5680    2.0510    8.5650 C   0  0  0  0  0  3  0  0  0  0  0  0
    8.6100    1.1370    8.6940 C   0  0  0  0  0  0  0  0  0  0  0  0
    8.8400    0.1720    7.7060 C   0  0  0  0  0  3  0  0  0  0  0  0
    8.0230    0.1740    6.5620 C   0  0  0  0  0  0  0  0  0  0  0  0
    9.4330    1.1440    9.9240 C   0  0  0  0  0  0  0  0  0  0  0  0
    8.9330    1.3010   11.0260 O   0  0  0  0  0  0  0  0  0  0  0  0
   10.7960    0.8040    9.7860 N   0  0  0  0  0  0  0  0  0  0  0  0
   11.9060    1.9490    9.2630 S   0  0  0  0  0  0  0  0  0  0  0  0
   11.6710    3.1400   10.0430 O   0  0  0  0  0  0  0  0  0  0  0  0
   13.1900    1.2890    9.2850 O   0  0  0  0  0  0  0  0  0  0  0  0
   11.4680    2.2260    7.6690 N   0  0  0  0  0  0  0  0  0  0  0  0
   11.8380    1.2230    6.6440 C   0  0  0  0  0  2  0  0  0  0  0  0
   13.2740    1.3570    6.1350 C   0  0  0  0  0  2  0  0  0  0  0  0
   13.4090    1.7740    4.6640 C   0  0  0  0  0  2  0  0  0  0  0  0
   13.0690    0.6870    3.6310 C   0  0  0  0  0  2  0  0  0  0  0  0
   11.6440    0.3710    3.5240 N   0  0  0  0  0  0  0  0  0  0  0  0
   10.7960    1.3650    2.8700 C   0  0  0  0  0  1  0  0  0  0  0  0
   11.2030   -0.8590    3.9990 C   0  0  0  0  0  0  0  0  0  0  0  0
   11.9260   -1.6370    4.6190 O   0  0  0  0  0  0  0  0  0  0  0  0
   11.1520    0.5530   10.7080 H   0  0  0  0  0  0  0  0  0  0  0  0
    5.2760    1.6360    4.4540 C   0  0  0  0  0  3  0  0  0  0  0  0
    3.9070    1.4340    5.1230 C   0  0  0  0  0  2  0  0  0  0  0  0
    2.8160    2.2380    4.4200 C   0  0  0  0  0  2  0  0  0  0  0  0
    3.1770    3.7180    4.3260 C   0  0  0  0  0  2  0  0  0  0  0  0
    4.5310    3.9240    3.6520 C   0  0  0  0  0  2  0  0  0  0  0  0
    5.6340    3.1310    4.3510 C   0  0  0  0  0  2  0  0  0  0  0  0
   11.0680    3.6080    7.2800 C   0  0  0  0  0  3  0  0  0  0  0  0
   12.2850    4.4830    6.9920 C   0  0  0  0  0  1  0  0  0  0  0  0
   10.0880    3.6480    6.1110 C   0  0  0  0  0  1  0  0  0  0  0  0
    6.2810   -4.6290   -0.1250 C   0  0  0  0  0  1  0  0  0  0  0  0
    5.8560   -3.2720   -0.1180 O   0  0  0  0  0  0  0  0  0  0  0  0
  1  6  2  0  0  0  0
  1  2  1  0  0  0  0
  2  3  2  0  0  0  0
  3  4  1  0  0  0  0
  4 11  1  0  0  0  0
  5  7  1  0  0  0  0
  5  4  2  0  0  0  0
  6  5  1  0  0  0  0
  7  8  2  0  0  0  0
  8 32  1  0  0  0  0
  8  9  1  0  0  0  0
  9 10  1  0  0  0  0
 10 18  1  0  0  0  0
 11 12  2  0  0  0  0
 11 10  1  0  0  0  0
 12 13  1  0  0  0  0
 13 18  2  0  0  0  0
 13 14  1  0  0  0  0
 14 15  2  0  0  0  0
 15 16  1  0  0  0  0
 16 19  1  0  0  0  0
 17 16  2  0  0  0  0
 18 17  1  0  0  0  0
 19 20  2  0  0  0  0
 21 19  1  0  0  0  0
 21 34  1  0  0  0  0
 22 24  2  0  0  0  0
 22 21  1  0  0  0  0
 22 23  2  0  0  0  0
 25 22  1  0  0  0  0
 26 25  1  0  0  0  0
 27 26  1  0  0  0  0
 28 27  1  0  0  0  0
 29 28  1  0  0  0  0
 30 29  1  0  0  0  0
 30 32  1  0  0  0  0
 31 30  1  0  0  0  0
 32 33  2  0  0  0  0
 35 12  1  0  0  0  0
 35 36  1  0  0  0  0
 37 36  1  0  0  0  0
 38 37  1  0  0  0  0
 39 38  1  0  0  0  0
 39 40  1  0  0  0  0
 40 35  1  0  0  0  0
 41 25  1  0  0  0  0
 42 41  1  0  0  0  0
 43 41  1  0  0  0  0
 44 45  1  0  0  0  0
 45  1  1  0  0  0  0
M  END
>  <minimizedAffinity>
-4.56029558

$$$$
