
 OpenBabel09092211523D

 45 50  0  0  0  0  0  0  0  0999 V2000
   11.3600    8.0260    6.3260 C   0  0  0  0  0  0  0  0  0  0  0  0
   10.0550    8.0510    6.8030 C   0  0  0  0  0  3  0  0  0  0  0  0
    9.2780    6.8880    6.7770 C   0  0  0  0  0  3  0  0  0  0  0  0
    9.7860    5.6740    6.2870 C   0  0  0  0  0  0  0  0  0  0  0  0
   11.0990    5.6610    5.7600 C   0  0  0  0  0  0  0  0  0  0  0  0
   11.8730    6.8340    5.8080 C   0  0  0  0  0  3  0  0  0  0  0  0
   11.7440    4.4670    5.1770 C   0  0  0  0  0  3  0  0  0  0  0  0
   11.0730    3.5610    4.4440 C   0  0  0  0  0  0  0  0  0  0  0  0
    9.6380    3.7230    4.0370 C   0  0  0  0  0  2  0  0  0  0  0  0
    8.7830    3.6360    5.2160 N   0  0  0  0  0  0  0  0  0  0  0  0
    8.9030    4.4830    6.3050 C   0  0  0  0  0  0  0  0  0  0  0  0
    8.0940    3.9520    7.3150 C   0  0  0  0  0  0  0  0  0  0  0  0
    7.3660    2.8480    6.7410 C   0  0  0  0  0  0  0  0  0  0  0  0
    6.3690    1.9640    7.2210 C   0  0  0  0  0  3  0  0  0  0  0  0
    5.8650    0.9480    6.3970 C   0  0  0  0  0  3  0  0  0  0  0  0
    6.3550    0.7890    5.1040 C   0  0  0  0  0  0  0  0  0  0  0  0
    7.3230    1.6640    4.5950 C   0  0  0  0  0  3  0  0  0  0  0  0
    7.8190    2.6790    5.4330 C   0  0  0  0  0  0  0  0  0  0  0  0
    5.7910   -0.2710    4.2390 C   0  0  0  0  0  0  0  0  0  0  0  0
    4.5940   -0.5090    4.2190 O   0  0  0  0  0  0  0  0  0  0  0  0
    6.6710   -0.8870    3.3240 N   0  0  0  0  0  0  0  0  0  0  0  0
    7.7010   -2.1120    3.8310 S   0  0  0  0  0  0  0  0  0  0  0  0
    6.8990   -3.0370    4.5940 O   0  0  0  0  0  0  0  0  0  0  0  0
    8.4090   -2.5420    2.6490 O   0  0  0  0  0  0  0  0  0  0  0  0
    8.7760   -1.3280    4.8500 N   0  0  0  0  0  0  0  0  0  0  0  0
    9.8530   -0.5040    4.2530 C   0  0  0  0  0  2  0  0  0  0  0  0
   11.0720   -1.3100    3.8020 C   0  0  0  0  0  2  0  0  0  0  0  0
   12.3610   -1.0400    4.5910 C   0  0  0  0  0  2  0  0  0  0  0  0
   13.0510    0.3020    4.2970 C   0  0  0  0  0  2  0  0  0  0  0  0
   12.3530    1.4750    4.8240 N   0  0  0  0  0  0  0  0  0  0  0  0
   12.4050    1.6780    6.2700 C   0  0  0  0  0  1  0  0  0  0  0  0
   11.7370    2.3380    3.9230 C   0  0  0  0  0  0  0  0  0  0  0  0
   11.6390    2.0940    2.7210 O   0  0  0  0  0  0  0  0  0  0  0  0
    6.1080   -1.3500    2.6110 H   0  0  0  0  0  0  0  0  0  0  0  0
    8.0130    4.4380    8.7480 C   0  0  0  0  0  3  0  0  0  0  0  0
    6.6290    5.0020    9.1080 C   0  0  0  0  0  2  0  0  0  0  0  0
    6.5880    5.5100   10.5480 C   0  0  0  0  0  2  0  0  0  0  0  0
    7.0270    4.4340   11.5380 C   0  0  0  0  0  2  0  0  0  0  0  0
    8.4050    3.8800   11.1910 C   0  0  0  0  0  2  0  0  0  0  0  0
    8.4580    3.3610    9.7550 C   0  0  0  0  0  2  0  0  0  0  0  0
    8.8500   -1.7730    6.2700 C   0  0  0  0  0  3  0  0  0  0  0  0
    9.7390   -3.0030    6.4260 C   0  0  0  0  0  1  0  0  0  0  0  0
    9.2870   -0.6690    7.2290 C   0  0  0  0  0  1  0  0  0  0  0  0
   13.0590    9.2630    7.4370 C   0  0  0  0  0  1  0  0  0  0  0  0
   12.2280    9.0820    6.2980 O   0  0  0  0  0  0  0  0  0  0  0  0
  1  2  1  0  0  0  0
  3  2  2  0  0  0  0
  4 11  1  0  0  0  0
  4  3  1  0  0  0  0
  5  6  1  0  0  0  0
  5  4  2  0  0  0  0
  6  1  2  0  0  0  0
  7  5  1  0  0  0  0
  8  7  2  0  0  0  0
  9  8  1  0  0  0  0
  9 10  1  0  0  0  0
 10 18  1  0  0  0  0
 10 11  1  0  0  0  0
 11 12  2  0  0  0  0
 12 35  1  0  0  0  0
 13 14  1  0  0  0  0
 13 12  1  0  0  0  0
 15 14  2  0  0  0  0
 16 15  1  0  0  0  0
 17 16  2  0  0  0  0
 17 18  1  0  0  0  0
 18 13  2  0  0  0  0
 19 16  1  0  0  0  0
 20 19  2  0  0  0  0
 21 22  1  0  0  0  0
 21 19  1  0  0  0  0
 22 23  2  0  0  0  0
 22 25  1  0  0  0  0
 24 22  2  0  0  0  0
 25 41  1  0  0  0  0
 26 25  1  0  0  0  0
 27 26  1  0  0  0  0
 27 28  1  0  0  0  0
 29 28  1  0  0  0  0
 29 30  1  0  0  0  0
 30 31  1  0  0  0  0
 32  8  1  0  0  0  0
 32 30  1  0  0  0  0
 33 32  2  0  0  0  0
 34 21  1  0  0  0  0
 35 36  1  0  0  0  0
 35 40  1  0  0  0  0
 36 37  1  0  0  0  0
 37 38  1  0  0  0  0
 39 38  1  0  0  0  0
 40 39  1  0  0  0  0
 41 42  1  0  0  0  0
 41 43  1  0  0  0  0
 45  1  1  0  0  0  0
 45 44  1  0  0  0  0
M  END
>  <minimizedAffinity>
-4.88911343

$$$$
