
 OpenBabel09092211523D

 45 50  0  0  0  0  0  0  0  0999 V2000
   12.4320    0.2680    4.0960 C   0  0  0  0  0  0  0  0  0  0  0  0
   12.3740    1.3480    3.2210 C   0  0  0  0  0  3  0  0  0  0  0  0
   11.3130    2.2560    3.3010 C   0  0  0  0  0  3  0  0  0  0  0  0
   10.2930    2.1150    4.2580 C   0  0  0  0  0  0  0  0  0  0  0  0
   10.3300    0.9910    5.1170 C   0  0  0  0  0  0  0  0  0  0  0  0
   11.4120    0.0970    5.0350 C   0  0  0  0  0  3  0  0  0  0  0  0
    9.3060    0.6990    6.1390 C   0  0  0  0  0  3  0  0  0  0  0  0
    7.9960    0.9410    5.9490 C   0  0  0  0  0  0  0  0  0  0  0  0
    7.4220    1.4150    4.6470 C   0  0  0  0  0  2  0  0  0  0  0  0
    7.8740    2.7760    4.3790 N   0  0  0  0  0  0  0  0  0  0  0  0
    9.2100    3.1270    4.2850 C   0  0  0  0  0  0  0  0  0  0  0  0
    9.2550    4.5250    4.2640 C   0  0  0  0  0  0  0  0  0  0  0  0
    7.8940    4.9940    4.1910 C   0  0  0  0  0  0  0  0  0  0  0  0
    7.2920    6.2710    4.0840 C   0  0  0  0  0  3  0  0  0  0  0  0
    5.8960    6.3980    4.0600 C   0  0  0  0  0  3  0  0  0  0  0  0
    5.0890    5.2680    4.1600 C   0  0  0  0  0  0  0  0  0  0  0  0
    5.6580    3.9910    4.2430 C   0  0  0  0  0  3  0  0  0  0  0  0
    7.0590    3.8790    4.2650 C   0  0  0  0  0  0  0  0  0  0  0  0
    3.6190    5.4190    4.1050 C   0  0  0  0  0  0  0  0  0  0  0  0
    3.0850    6.1930    3.3260 O   0  0  0  0  0  0  0  0  0  0  0  0
    2.8520    4.5190    4.8750 N   0  0  0  0  0  0  0  0  0  0  0  0
    2.6280    4.7860    6.5170 S   0  0  0  0  0  0  0  0  0  0  0  0
    2.2380    6.1680    6.6620 O   0  0  0  0  0  0  0  0  0  0  0  0
    1.7680    3.7200    6.9740 O   0  0  0  0  0  0  0  0  0  0  0  0
    4.1570    4.5630    7.1660 N   0  0  0  0  0  0  0  0  0  0  0  0
    4.6640    3.1810    7.3370 C   0  0  0  0  0  2  0  0  0  0  0  0
    4.1670    2.4910    8.6080 C   0  0  0  0  0  2  0  0  0  0  0  0
    5.2490    2.1930    9.6550 C   0  0  0  0  0  2  0  0  0  0  0  0
    6.2030    1.0360    9.3140 C   0  0  0  0  0  2  0  0  0  0  0  0
    7.1600    1.3280    8.2480 N   0  0  0  0  0  0  0  0  0  0  0  0
    8.2570    2.2350    8.5780 C   0  0  0  0  0  1  0  0  0  0  0  0
    6.9970    0.6930    7.0210 C   0  0  0  0  0  0  0  0  0  0  0  0
    6.0170    0.0010    6.7490 O   0  0  0  0  0  0  0  0  0  0  0  0
    1.8980    4.5300    4.5150 H   0  0  0  0  0  0  0  0  0  0  0  0
   10.5030    5.3840    4.3240 C   0  0  0  0  0  3  0  0  0  0  0  0
   10.2530    6.8290    3.8640 C   0  0  0  0  0  2  0  0  0  0  0  0
   11.5340    7.6600    3.9090 C   0  0  0  0  0  2  0  0  0  0  0  0
   12.1870    7.6170    5.2870 C   0  0  0  0  0  2  0  0  0  0  0  0
   12.4460    6.1840    5.7420 C   0  0  0  0  0  2  0  0  0  0  0  0
   11.1710    5.3430    5.7110 C   0  0  0  0  0  2  0  0  0  0  0  0
    4.7900    5.7050    7.8840 C   0  0  0  0  0  3  0  0  0  0  0  0
    4.2960    5.8050    9.3240 C   0  0  0  0  0  1  0  0  0  0  0  0
    6.3140    5.6790    7.8390 C   0  0  0  0  0  1  0  0  0  0  0  0
   13.0430   -1.9650    4.6370 C   0  0  0  0  0  1  0  0  0  0  0  0
   13.4090   -0.6870    4.1330 O   0  0  0  0  0  0  0  0  0  0  0  0
  1 45  1  0  0  0  0
  1  6  1  0  0  0  0
  2  3  1  0  0  0  0
  2  1  2  0  0  0  0
  3  4  2  0  0  0  0
  4 11  1  0  0  0  0
  4  5  1  0  0  0  0
  5  7  1  0  0  0  0
  6  5  2  0  0  0  0
  8  7  2  0  0  0  0
  8 32  1  0  0  0  0
  9  8  1  0  0  0  0
 10  9  1  0  0  0  0
 11 10  1  0  0  0  0
 12 11  2  0  0  0  0
 12 35  1  0  0  0  0
 13 12  1  0  0  0  0
 13 18  1  0  0  0  0
 14 13  2  0  0  0  0
 15 14  1  0  0  0  0
 15 16  2  0  0  0  0
 16 17  1  0  0  0  0
 17 18  2  0  0  0  0
 18 10  1  0  0  0  0
 19 16  1  0  0  0  0
 19 21  1  0  0  0  0
 20 19  2  0  0  0  0
 21 22  1  0  0  0  0
 22 23  2  0  0  0  0
 22 24  2  0  0  0  0
 22 25  1  0  0  0  0
 25 26  1  0  0  0  0
 25 41  1  0  0  0  0
 26 27  1  0  0  0  0
 27 28  1  0  0  0  0
 29 28  1  0  0  0  0
 30 31  1  0  0  0  0
 30 29  1  0  0  0  0
 32 30  1  0  0  0  0
 33 32  2  0  0  0  0
 34 21  1  0  0  0  0
 35 40  1  0  0  0  0
 36 37  1  0  0  0  0
 36 35  1  0  0  0  0
 37 38  1  0  0  0  0
 38 39  1  0  0  0  0
 40 39  1  0  0  0  0
 41 42  1  0  0  0  0
 43 41  1  0  0  0  0
 45 44  1  0  0  0  0
M  END
>  <minimizedAffinity>
-4.96469164

$$$$
