
 OpenBabel09092211523D

 45 50  0  0  0  0  0  0  0  0999 V2000
    1.5010   -1.9740    5.4210 C   0  0  0  0  0  0  0  0  0  0  0  0
    1.7660   -1.6700    4.0900 C   0  0  0  0  0  3  0  0  0  0  0  0
    3.0840   -1.4570    3.6710 C   0  0  0  0  0  3  0  0  0  0  0  0
    4.1650   -1.5530    4.5630 C   0  0  0  0  0  0  0  0  0  0  0  0
    3.8890   -1.8180    5.9250 C   0  0  0  0  0  0  0  0  0  0  0  0
    2.5610   -2.0450    6.3280 C   0  0  0  0  0  3  0  0  0  0  0  0
    4.9230   -1.9050    6.9760 C   0  0  0  0  0  3  0  0  0  0  0  0
    6.0120   -1.1160    6.9940 C   0  0  0  0  0  0  0  0  0  0  0  0
    6.2350    0.0120    6.0310 C   0  0  0  0  0  2  0  0  0  0  0  0
    6.4520   -0.5240    4.6920 N   0  0  0  0  0  0  0  0  0  0  0  0
    5.5330   -1.3270    4.0370 C   0  0  0  0  0  0  0  0  0  0  0  0
    6.1800   -1.8320    2.9040 C   0  0  0  0  0  0  0  0  0  0  0  0
    7.4630   -1.1820    2.8220 C   0  0  0  0  0  0  0  0  0  0  0  0
    8.5330   -1.2170    1.8940 C   0  0  0  0  0  3  0  0  0  0  0  0
    9.6930   -0.4630    2.1180 C   0  0  0  0  0  3  0  0  0  0  0  0
    9.8090    0.3150    3.2660 C   0  0  0  0  0  0  0  0  0  0  0  0
    8.7580    0.3890    4.1880 C   0  0  0  0  0  3  0  0  0  0  0  0
    7.6010   -0.3730    3.9500 C   0  0  0  0  0  0  0  0  0  0  0  0
   11.0290    1.1270    3.4720 C   0  0  0  0  0  0  0  0  0  0  0  0
   11.5550    1.7340    2.5520 O   0  0  0  0  0  0  0  0  0  0  0  0
   11.4690    1.2990    4.8020 N   0  0  0  0  0  0  0  0  0  0  0  0
   12.3670    0.1010    5.5590 S   0  0  0  0  0  0  0  0  0  0  0  0
   13.4090   -0.2810    4.6380 O   0  0  0  0  0  0  0  0  0  0  0  0
   12.6860    0.6190    6.8690 O   0  0  0  0  0  0  0  0  0  0  0  0
   11.2780   -1.1630    5.7280 N   0  0  0  0  0  0  0  0  0  0  0  0
   10.2560   -1.0840    6.7980 C   0  0  0  0  0  2  0  0  0  0  0  0
   10.7640   -1.5120    8.1750 C   0  0  0  0  0  2  0  0  0  0  0  0
   10.1350   -2.7960    8.7330 C   0  0  0  0  0  2  0  0  0  0  0  0
    8.6870   -2.6650    9.2310 C   0  0  0  0  0  2  0  0  0  0  0  0
    7.6900   -2.5060    8.1720 N   0  0  0  0  0  0  0  0  0  0  0  0
    7.3870   -3.6890    7.3700 C   0  0  0  0  0  1  0  0  0  0  0  0
    7.0650   -1.2710    8.0310 C   0  0  0  0  0  0  0  0  0  0  0  0
    7.4030   -0.2730    8.6660 O   0  0  0  0  0  0  0  0  0  0  0  0
   12.1010    2.0990    4.8220 H   0  0  0  0  0  0  0  0  0  0  0  0
    5.6360   -2.8800    1.9540 C   0  0  0  0  0  3  0  0  0  0  0  0
    5.4340   -2.3420    0.5280 C   0  0  0  0  0  2  0  0  0  0  0  0
    4.8590   -3.4130   -0.3970 C   0  0  0  0  0  2  0  0  0  0  0  0
    5.7110   -4.6790   -0.3940 C   0  0  0  0  0  2  0  0  0  0  0  0
    5.9050   -5.2220    1.0190 C   0  0  0  0  0  2  0  0  0  0  0  0
    6.4880   -4.1630    1.9540 C   0  0  0  0  0  2  0  0  0  0  0  0
   11.5980   -2.4600    5.0680 C   0  0  0  0  0  3  0  0  0  0  0  0
   12.5890   -3.2780    5.8910 C   0  0  0  0  0  1  0  0  0  0  0  0
   10.3630   -3.2900    4.7320 C   0  0  0  0  0  1  0  0  0  0  0  0
    0.1950   -3.1830    6.9970 C   0  0  0  0  0  1  0  0  0  0  0  0
    0.2680   -2.2100    5.9630 O   0  0  0  0  0  0  0  0  0  0  0  0
  1 45  1  0  0  0  0
  1  6  1  0  0  0  0
  2  1  2  0  0  0  0
  3  2  1  0  0  0  0
  3  4  2  0  0  0  0
  4  5  1  0  0  0  0
  5  6  2  0  0  0  0
  5  7  1  0  0  0  0
  7  8  2  0  0  0  0
  8 32  1  0  0  0  0
  9  8  1  0  0  0  0
 10  9  1  0  0  0  0
 11  4  1  0  0  0  0
 11 10  1  0  0  0  0
 12 11  2  0  0  0  0
 13 12  1  0  0  0  0
 13 18  1  0  0  0  0
 14 15  1  0  0  0  0
 14 13  2  0  0  0  0
 15 16  2  0  0  0  0
 16 19  1  0  0  0  0
 16 17  1  0  0  0  0
 18 17  2  0  0  0  0
 18 10  1  0  0  0  0
 19 21  1  0  0  0  0
 20 19  2  0  0  0  0
 21 34  1  0  0  0  0
 21 22  1  0  0  0  0
 22 25  1  0  0  0  0
 22 24  2  0  0  0  0
 23 22  2  0  0  0  0
 25 26  1  0  0  0  0
 26 27  1  0  0  0  0
 27 28  1  0  0  0  0
 28 29  1  0  0  0  0
 30 29  1  0  0  0  0
 31 30  1  0  0  0  0
 32 30  1  0  0  0  0
 32 33  2  0  0  0  0
 35 12  1  0  0  0  0
 36 35  1  0  0  0  0
 37 38  1  0  0  0  0
 37 36  1  0  0  0  0
 38 39  1  0  0  0  0
 39 40  1  0  0  0  0
 40 35  1  0  0  0  0
 41 25  1  0  0  0  0
 41 42  1  0  0  0  0
 43 41  1  0  0  0  0
 45 44  1  0  0  0  0
M  END
>  <minimizedAffinity>
-4.4689312

$$$$
