
 OpenBabel09092211523D

 45 50  0  0  0  0  0  0  0  0999 V2000
    8.0610   -2.1500    4.0050 C   0  0  0  0  0  0  0  0  0  0  0  0
    8.9710   -1.5340    3.1530 C   0  0  0  0  0  3  0  0  0  0  0  0
    9.1990   -0.1570    3.2500 C   0  0  0  0  0  3  0  0  0  0  0  0
    8.5350    0.6340    4.2040 C   0  0  0  0  0  0  0  0  0  0  0  0
    7.5770    0.0130    5.0400 C   0  0  0  0  0  0  0  0  0  0  0  0
    7.3710   -1.3740    4.9410 C   0  0  0  0  0  3  0  0  0  0  0  0
    6.7800    0.7280    6.0550 C   0  0  0  0  0  3  0  0  0  0  0  0
    6.3150    1.9770    5.8700 C   0  0  0  0  0  0  0  0  0  0  0  0
    6.4460    2.7270    4.5780 C   0  0  0  0  0  2  0  0  0  0  0  0
    7.8490    3.0450    4.3380 N   0  0  0  0  0  0  0  0  0  0  0  0
    8.8420    2.0830    4.2510 C   0  0  0  0  0  0  0  0  0  0  0  0
   10.0620    2.7670    4.2580 C   0  0  0  0  0  0  0  0  0  0  0  0
    9.7620    4.1750    4.1950 C   0  0  0  0  0  0  0  0  0  0  0  0
   10.5460    5.3520    4.1130 C   0  0  0  0  0  3  0  0  0  0  0  0
    9.9350    6.6130    4.0910 C   0  0  0  0  0  3  0  0  0  0  0  0
    8.5490    6.7190    4.1680 C   0  0  0  0  0  0  0  0  0  0  0  0
    7.7470    5.5720    4.2250 C   0  0  0  0  0  3  0  0  0  0  0  0
    8.3750    4.3140    4.2460 C   0  0  0  0  0  0  0  0  0  0  0  0
    7.9190    8.0570    4.1150 C   0  0  0  0  0  0  0  0  0  0  0  0
    8.3200    8.9210    3.3520 O   0  0  0  0  0  0  0  0  0  0  0  0
    6.7390    8.2400    4.8680 N   0  0  0  0  0  0  0  0  0  0  0  0
    6.8240    8.5540    6.5140 S   0  0  0  0  0  0  0  0  0  0  0  0
    7.8030    9.5990    6.6870 O   0  0  0  0  0  0  0  0  0  0  0  0
    5.4590    8.7350    6.9490 O   0  0  0  0  0  0  0  0  0  0  0  0
    7.4110    7.1220    7.1590 N   0  0  0  0  0  0  0  0  0  0  0  0
    6.4870    5.9730    7.3030 C   0  0  0  0  0  2  0  0  0  0  0  0
    5.6180    6.0290    8.5590 C   0  0  0  0  0  2  0  0  0  0  0  0
    5.9030    4.9380    9.6000 C   0  0  0  0  0  2  0  0  0  0  0  0
    5.4110    3.5280    9.2370 C   0  0  0  0  0  2  0  0  0  0  0  0
    6.1740    2.8700    8.1760 N   0  0  0  0  0  0  0  0  0  0  0  0
    7.5120    2.3950    8.5250 C   0  0  0  0  0  1  0  0  0  0  0  0
    5.5680    2.6930    6.9370 C   0  0  0  0  0  0  0  0  0  0  0  0
    4.4740    3.1780    6.6510 O   0  0  0  0  0  0  0  0  0  0  0  0
    6.2630    9.0670    4.5070 H   0  0  0  0  0  0  0  0  0  0  0  0
   11.4410    2.1410    4.3350 C   0  0  0  0  0  3  0  0  0  0  0  0
   11.5460    1.0690    5.4310 C   0  0  0  0  0  2  0  0  0  0  0  0
   12.9530    0.4780    5.5030 C   0  0  0  0  0  2  0  0  0  0  0  0
   13.4090   -0.0600    4.1500 C   0  0  0  0  0  2  0  0  0  0  0  0
   13.3160    1.0050    3.0610 C   0  0  0  0  0  2  0  0  0  0  0  0
   11.9110    1.5990    2.9720 C   0  0  0  0  0  2  0  0  0  0  0  0
    8.7040    7.1630    7.9000 C   0  0  0  0  0  3  0  0  0  0  0  0
    8.5100    7.6320    9.3390 C   0  0  0  0  0  1  0  0  0  0  0  0
    9.4650    5.8420    7.8620 C   0  0  0  0  0  1  0  0  0  0  0  0
    6.3710   -3.8170    4.1300 C   0  0  0  0  0  1  0  0  0  0  0  0
    7.7480   -3.4810    4.0230 O   0  0  0  0  0  0  0  0  0  0  0  0
  1 45  1  0  0  0  0
  1  6  1  0  0  0  0
  2  3  1  0  0  0  0
  2  1  2  0  0  0  0
  3  4  2  0  0  0  0
  4 11  1  0  0  0  0
  4  5  1  0  0  0  0
  5  7  1  0  0  0  0
  6  5  2  0  0  0  0
  8  7  2  0  0  0  0
  8 32  1  0  0  0  0
  9  8  1  0  0  0  0
 10  9  1  0  0  0  0
 11 12  2  0  0  0  0
 11 10  1  0  0  0  0
 12 35  1  0  0  0  0
 13 18  1  0  0  0  0
 13 12  1  0  0  0  0
 14 13  2  0  0  0  0
 15 14  1  0  0  0  0
 15 16  2  0  0  0  0
 16 17  1  0  0  0  0
 17 18  2  0  0  0  0
 18 10  1  0  0  0  0
 19 16  1  0  0  0  0
 19 21  1  0  0  0  0
 20 19  2  0  0  0  0
 21 22  1  0  0  0  0
 22 23  2  0  0  0  0
 22 24  2  0  0  0  0
 22 25  1  0  0  0  0
 25 26  1  0  0  0  0
 25 41  1  0  0  0  0
 26 27  1  0  0  0  0
 27 28  1  0  0  0  0
 29 28  1  0  0  0  0
 30 31  1  0  0  0  0
 30 29  1  0  0  0  0
 32 30  1  0  0  0  0
 33 32  2  0  0  0  0
 34 21  1  0  0  0  0
 35 36  1  0  0  0  0
 36 37  1  0  0  0  0
 38 37  1  0  0  0  0
 39 38  1  0  0  0  0
 40 39  1  0  0  0  0
 40 35  1  0  0  0  0
 41 42  1  0  0  0  0
 43 41  1  0  0  0  0
 45 44  1  0  0  0  0
M  END
>  <minimizedAffinity>
-5.30288219

$$$$
