
 OpenBabel09092211523D

 45 50  0  0  0  0  0  0  0  0999 V2000
   11.5230    7.7710    6.0710 C   0  0  0  0  0  0  0  0  0  0  0  0
   10.2290    7.8520    6.5730 C   0  0  0  0  0  3  0  0  0  0  0  0
    9.4120    6.7170    6.5870 C   0  0  0  0  0  3  0  0  0  0  0  0
    9.8680    5.4750    6.1130 C   0  0  0  0  0  0  0  0  0  0  0  0
   11.1690    5.4050    5.5610 C   0  0  0  0  0  0  0  0  0  0  0  0
   11.9840    6.5510    5.5690 C   0  0  0  0  0  3  0  0  0  0  0  0
   11.7600    4.1780    4.9920 C   0  0  0  0  0  3  0  0  0  0  0  0
   11.0430    3.2800    4.2920 C   0  0  0  0  0  0  0  0  0  0  0  0
    9.6070    3.4840    3.9100 C   0  0  0  0  0  2  0  0  0  0  0  0
    8.7730    3.4520    5.1060 N   0  0  0  0  0  0  0  0  0  0  0  0
    8.9450    4.3170    6.1750 C   0  0  0  0  0  0  0  0  0  0  0  0
    8.1380    3.8360    7.2110 C   0  0  0  0  0  0  0  0  0  0  0  0
    7.3610    2.7470    6.6750 C   0  0  0  0  0  0  0  0  0  0  0  0
    6.3440    1.9080    7.1940 C   0  0  0  0  0  3  0  0  0  0  0  0
    5.7880    0.8940    6.4020 C   0  0  0  0  0  3  0  0  0  0  0  0
    6.2460    0.6910    5.1030 C   0  0  0  0  0  0  0  0  0  0  0  0
    7.2330    1.5200    4.5560 C   0  0  0  0  0  3  0  0  0  0  0  0
    7.7810    2.5340    5.3620 C   0  0  0  0  0  0  0  0  0  0  0  0
    5.6290   -0.3670    4.2730 C   0  0  0  0  0  0  0  0  0  0  0  0
    4.4240   -0.5630    4.2810 O   0  0  0  0  0  0  0  0  0  0  0  0
    6.4680   -1.0330    3.3540 N   0  0  0  0  0  0  0  0  0  0  0  0
    7.4640   -2.2820    3.8680 S   0  0  0  0  0  0  0  0  0  0  0  0
    6.6460   -3.1620    4.6660 O   0  0  0  0  0  0  0  0  0  0  0  0
    8.1340   -2.7620    2.6820 O   0  0  0  0  0  0  0  0  0  0  0  0
    8.5860   -1.5150    4.8490 N   0  0  0  0  0  0  0  0  0  0  0  0
    9.6790   -0.7430    4.2130 C   0  0  0  0  0  2  0  0  0  0  0  0
   10.8600   -1.6000    3.7560 C   0  0  0  0  0  2  0  0  0  0  0  0
   12.1730   -1.3590    4.5140 C   0  0  0  0  0  2  0  0  0  0  0  0
   12.9030   -0.0480    4.1780 C   0  0  0  0  0  2  0  0  0  0  0  0
   12.2570    1.1590    4.6920 N   0  0  0  0  0  0  0  0  0  0  0  0
   12.3450    1.3900    6.1320 C   0  0  0  0  0  1  0  0  0  0  0  0
   11.6540    2.0240    3.7850 C   0  0  0  0  0  0  0  0  0  0  0  0
   11.5240    1.7590    2.5910 O   0  0  0  0  0  0  0  0  0  0  0  0
    5.8750   -1.4900    2.6620 H   0  0  0  0  0  0  0  0  0  0  0  0
    8.1020    4.3550    8.6340 C   0  0  0  0  0  3  0  0  0  0  0  0
    6.7610    5.0120    8.9950 C   0  0  0  0  0  2  0  0  0  0  0  0
    6.7670    5.5500   10.4250 C   0  0  0  0  0  2  0  0  0  0  0  0
    7.1480    4.4690   11.4330 C   0  0  0  0  0  2  0  0  0  0  0  0
    8.4850    3.8220   11.0840 C   0  0  0  0  0  2  0  0  0  0  0  0
    8.4900    3.2720    9.6590 C   0  0  0  0  0  2  0  0  0  0  0  0
    8.6730   -1.9320    6.2760 C   0  0  0  0  0  3  0  0  0  0  0  0
    9.5120   -3.1960    6.4400 C   0  0  0  0  0  1  0  0  0  0  0  0
    9.1780   -0.8280    7.2010 C   0  0  0  0  0  1  0  0  0  0  0  0
   13.0450    9.1910    7.2200 C   0  0  0  0  0  1  0  0  0  0  0  0
   12.4270    8.7950    6.0030 O   0  0  0  0  0  0  0  0  0  0  0  0
  1  2  1  0  0  0  0
  2  3  2  0  0  0  0
  4 11  1  0  0  0  0
  4  3  1  0  0  0  0
  5  6  1  0  0  0  0
  5  4  2  0  0  0  0
  6  1  2  0  0  0  0
  7  5  1  0  0  0  0
  8  7  2  0  0  0  0
  9  8  1  0  0  0  0
  9 10  1  0  0  0  0
 10 18  1  0  0  0  0
 10 11  1  0  0  0  0
 11 12  2  0  0  0  0
 12 35  1  0  0  0  0
 13 14  1  0  0  0  0
 13 12  1  0  0  0  0
 15 14  2  0  0  0  0
 16 15  1  0  0  0  0
 17 16  2  0  0  0  0
 17 18  1  0  0  0  0
 18 13  2  0  0  0  0
 19 20  2  0  0  0  0
 19 16  1  0  0  0  0
 21 22  1  0  0  0  0
 21 19  1  0  0  0  0
 22 23  2  0  0  0  0
 22 25  1  0  0  0  0
 24 22  2  0  0  0  0
 25 41  1  0  0  0  0
 26 25  1  0  0  0  0
 27 26  1  0  0  0  0
 27 28  1  0  0  0  0
 29 28  1  0  0  0  0
 29 30  1  0  0  0  0
 30 31  1  0  0  0  0
 32  8  1  0  0  0  0
 32 30  1  0  0  0  0
 33 32  2  0  0  0  0
 34 21  1  0  0  0  0
 35 36  1  0  0  0  0
 35 40  1  0  0  0  0
 36 37  1  0  0  0  0
 37 38  1  0  0  0  0
 39 38  1  0  0  0  0
 40 39  1  0  0  0  0
 41 42  1  0  0  0  0
 41 43  1  0  0  0  0
 45  1  1  0  0  0  0
 45 44  1  0  0  0  0
M  END
>  <minimizedAffinity>
-5.00625372

$$$$
