
 OpenBabel09122222393D

 29 31  0  0  0  0  0  0  0  0999 V2000
    8.5790   -3.8070    1.7850 C   0  0  0  0  0  0  0  0  0  0  0  0
    7.6790   -4.5450    2.3300 N   0  0  0  0  0  0  0  0  0  0  0  0
    6.9650   -5.3960    1.5140 C   0  0  0  0  0  0  0  0  0  0  0  0
    7.1810   -5.5360    0.1910 C   0  0  0  0  0  0  0  0  0  0  0  0
    8.2620   -4.7090   -0.3920 C   0  0  0  0  0  0  0  0  0  0  0  0
    8.5830   -4.7700   -1.5730 O   0  0  0  0  0  0  0  0  0  0  0  0
    8.8880   -3.8540    0.4660 N   0  0  0  0  0  0  0  0  0  0  0  0
    9.6140   -3.2540    0.1010 H   0  0  0  0  0  0  0  0  0  0  0  0
    5.8610   -6.1090    2.1960 C   0  0  0  0  0  0  0  0  0  0  0  0
    5.8500   -7.5130    2.1860 C   0  0  0  0  0  3  0  0  0  0  0  0
    4.8130   -8.2180    2.8000 C   0  0  0  0  0  3  0  0  0  0  0  0
    3.7760   -7.5220    3.4160 C   0  0  0  0  0  0  0  0  0  0  0  0
    2.3630   -8.4790    4.2280 Br  0  0  0  0  0  0  0  0  0  0  0  0
    3.7680   -6.1290    3.4260 C   0  0  0  0  0  3  0  0  0  0  0  0
    4.8070   -5.4210    2.8140 C   0  0  0  0  0  3  0  0  0  0  0  0
    6.4300   -6.3830   -0.6640 C   0  0  0  0  0  0  0  0  0  0  0  0
    5.7880   -7.0610   -1.3550 N   0  0  0  0  0  0  0  0  0  0  0  0
    9.5210   -2.6390    2.6470 S   0  0  0  0  0  0  0  0  0  0  0  0
    8.6530   -1.0960    2.2470 C   0  0  0  0  0  2  0  0  0  0  0  0
   10.1550    2.0340    0.6300 C   0  0  0  0  0  0  0  0  0  0  0  0
    9.4930    1.1960    1.5340 C   0  0  0  0  0  3  0  0  0  0  0  0
    9.3740   -0.1780    1.2920 C   0  0  0  0  0  0  0  0  0  0  0  0
    9.9120   -0.6900    0.1020 C   0  0  0  0  0  3  0  0  0  0  0  0
   10.5660    0.1370   -0.8150 C   0  0  0  0  0  0  0  0  0  0  0  0
   10.6890    1.5010   -0.5480 C   0  0  0  0  0  3  0  0  0  0  0  0
    9.6430    4.3020    0.1200 C   0  0  0  0  0  1  0  0  0  0  0  0
   10.2050    3.3480    1.0110 O   0  0  0  0  0  0  0  0  0  0  0  0
   11.0330   -0.5140   -1.9250 O   0  0  0  0  0  0  0  0  0  0  0  0
   11.3470   -1.8930   -1.7880 C   0  0  0  0  0  1  0  0  0  0  0  0
  1  2  2  0  0  0  0
  1 18  1  0  0  0  0
  3  9  1  0  0  0  0
  3  2  1  0  0  0  0
  4  3  2  0  0  0  0
  5  4  1  0  0  0  0
  5  7  1  0  0  0  0
  6  5  2  0  0  0  0
  7  1  1  0  0  0  0
  8  7  1  0  0  0  0
  9 15  1  0  0  0  0
 10  9  2  0  0  0  0
 10 11  1  0  0  0  0
 11 12  2  0  0  0  0
 12 14  1  0  0  0  0
 12 13  1  0  0  0  0
 15 14  2  0  0  0  0
 16  4  1  0  0  0  0
 17 16  3  0  0  0  0
 19 18  1  0  0  0  0
 20 27  1  0  0  0  0
 20 21  1  0  0  0  0
 22 21  2  0  0  0  0
 22 19  1  0  0  0  0
 23 22  1  0  0  0  0
 24 25  1  0  0  0  0
 24 23  2  0  0  0  0
 25 20  2  0  0  0  0
 26 27  1  0  0  0  0
 28 29  1  0  0  0  0
 28 24  1  0  0  0  0
M  END
>  <minimizedAffinity>
-7.44318151

$$$$
