
 OpenBabel09122222393D

 29 31  0  0  0  0  0  0  0  0999 V2000
    8.2350   -4.8100    0.6690 C   0  0  0  0  0  0  0  0  0  0  0  0
    8.9970   -3.9710    0.0610 N   0  0  0  0  0  0  0  0  0  0  0  0
    9.3460   -2.8180    0.7310 C   0  0  0  0  0  0  0  0  0  0  0  0
    8.9780   -2.5360    1.9970 C   0  0  0  0  0  0  0  0  0  0  0  0
    8.1460   -3.5500    2.6830 C   0  0  0  0  0  0  0  0  0  0  0  0
    7.7770   -3.4310    3.8460 O   0  0  0  0  0  0  0  0  0  0  0  0
    7.7970   -4.6390    1.9400 N   0  0  0  0  0  0  0  0  0  0  0  0
    7.2090   -5.3400    2.3640 H   0  0  0  0  0  0  0  0  0  0  0  0
   10.1100   -1.8480   -0.0850 C   0  0  0  0  0  0  0  0  0  0  0  0
    9.7490   -0.4910   -0.0440 C   0  0  0  0  0  3  0  0  0  0  0  0
   10.4330    0.4490   -0.8170 C   0  0  0  0  0  3  0  0  0  0  0  0
   11.4750    0.0350   -1.6440 C   0  0  0  0  0  0  0  0  0  0  0  0
   12.3870    1.3050   -2.7050 Br  0  0  0  0  0  0  0  0  0  0  0  0
   11.8400   -1.3100   -1.7020 C   0  0  0  0  0  3  0  0  0  0  0  0
   11.1560   -2.2510   -0.9270 C   0  0  0  0  0  3  0  0  0  0  0  0
    9.3030   -1.3380    2.6830 C   0  0  0  0  0  0  0  0  0  0  0  0
    9.5400   -0.3560    3.2560 N   0  0  0  0  0  0  0  0  0  0  0  0
    7.6470   -6.2720   -0.0460 S   0  0  0  0  0  0  0  0  0  0  0  0
    5.8560   -5.9810   -0.0630 C   0  0  0  0  0  2  0  0  0  0  0  0
    4.0970   -5.8280    3.3350 C   0  0  0  0  0  0  0  0  0  0  0  0
    4.7650   -5.4380    2.1690 C   0  0  0  0  0  3  0  0  0  0  0  0
    5.1240   -6.3780    1.1950 C   0  0  0  0  0  0  0  0  0  0  0  0
    4.8230   -7.7270    1.4310 C   0  0  0  0  0  3  0  0  0  0  0  0
    4.1660   -8.1310    2.5970 C   0  0  0  0  0  0  0  0  0  0  0  0
    3.8000   -7.1780    3.5480 C   0  0  0  0  0  3  0  0  0  0  0  0
    3.7210   -3.4940    3.6200 C   0  0  0  0  0  1  0  0  0  0  0  0
    3.7970   -4.7970    4.1840 O   0  0  0  0  0  0  0  0  0  0  0  0
    3.9450   -9.4790    2.6790 O   0  0  0  0  0  0  0  0  0  0  0  0
    5.0850  -10.3270    2.7060 C   0  0  0  0  0  1  0  0  0  0  0  0
  1  7  1  0  0  0  0
  2  1  2  0  0  0  0
  2  3  1  0  0  0  0
  3  4  2  0  0  0  0
  4  5  1  0  0  0  0
  4 16  1  0  0  0  0
  5  6  2  0  0  0  0
  7  8  1  0  0  0  0
  7  5  1  0  0  0  0
  9 10  1  0  0  0  0
  9  3  1  0  0  0  0
 11 10  2  0  0  0  0
 12 11  1  0  0  0  0
 13 12  1  0  0  0  0
 14 12  2  0  0  0  0
 14 15  1  0  0  0  0
 15  9  2  0  0  0  0
 16 17  3  0  0  0  0
 18  1  1  0  0  0  0
 19 18  1  0  0  0  0
 19 22  1  0  0  0  0
 20 25  1  0  0  0  0
 20 27  1  0  0  0  0
 21 20  2  0  0  0  0
 22 23  2  0  0  0  0
 22 21  1  0  0  0  0
 23 24  1  0  0  0  0
 24 28  1  0  0  0  0
 24 25  2  0  0  0  0
 26 27  1  0  0  0  0
 28 29  1  0  0  0  0
M  END
>  <minimizedAffinity>
-6.68160868

$$$$
