
 OpenBabel09122222393D

 29 31  0  0  0  0  0  0  0  0999 V2000
    8.2370   -4.6890    0.5880 C   0  0  0  0  0  0  0  0  0  0  0  0
    8.9980   -3.8390   -0.0050 N   0  0  0  0  0  0  0  0  0  0  0  0
    9.3530   -2.7020    0.6870 C   0  0  0  0  0  0  0  0  0  0  0  0
    8.9930   -2.4460    1.9600 C   0  0  0  0  0  0  0  0  0  0  0  0
    8.1610   -3.4720    2.6290 C   0  0  0  0  0  0  0  0  0  0  0  0
    7.7990   -3.3760    3.7960 O   0  0  0  0  0  0  0  0  0  0  0  0
    7.8060   -4.5440    1.8650 N   0  0  0  0  0  0  0  0  0  0  0  0
    7.2180   -5.2520    2.2770 H   0  0  0  0  0  0  0  0  0  0  0  0
   10.1170   -1.7160   -0.1130 C   0  0  0  0  0  0  0  0  0  0  0  0
    9.7270   -0.3680   -0.0810 C   0  0  0  0  0  3  0  0  0  0  0  0
   10.4100    0.5860   -0.8390 C   0  0  0  0  0  3  0  0  0  0  0  0
   11.4780    0.1930   -1.6410 C   0  0  0  0  0  0  0  0  0  0  0  0
   12.3880    1.4810   -2.6830 Br  0  0  0  0  0  0  0  0  0  0  0  0
   11.8710   -1.1440   -1.6900 C   0  0  0  0  0  3  0  0  0  0  0  0
   11.1900   -2.0990   -0.9300 C   0  0  0  0  0  3  0  0  0  0  0  0
    9.3250   -1.2630    2.6700 C   0  0  0  0  0  0  0  0  0  0  0  0
    9.5930   -0.3100    3.2780 N   0  0  0  0  0  0  0  0  0  0  0  0
    7.6420   -6.1340   -0.1540 S   0  0  0  0  0  0  0  0  0  0  0  0
    5.8460   -5.8980   -0.0370 C   0  0  0  0  0  2  0  0  0  0  0  0
    4.5520   -8.3090    2.6420 C   0  0  0  0  0  0  0  0  0  0  0  0
    5.1650   -7.8190    1.4830 C   0  0  0  0  0  3  0  0  0  0  0  0
    5.2020   -6.4460    1.2120 C   0  0  0  0  0  0  0  0  0  0  0  0
    4.5820   -5.5740    2.1180 C   0  0  0  0  0  3  0  0  0  0  0  0
    3.9560   -6.0500    3.2730 C   0  0  0  0  0  0  0  0  0  0  0  0
    3.9450   -7.4210    3.5350 C   0  0  0  0  0  3  0  0  0  0  0  0
    5.5440  -10.1870    3.7170 C   0  0  0  0  0  1  0  0  0  0  0  0
    4.6110   -9.6700    2.7780 O   0  0  0  0  0  0  0  0  0  0  0  0
    3.3990   -5.0750    4.0540 O   0  0  0  0  0  0  0  0  0  0  0  0
    3.7470   -3.7280    3.7630 C   0  0  0  0  0  1  0  0  0  0  0  0
  1  7  1  0  0  0  0
  2  1  2  0  0  0  0
  2  3  1  0  0  0  0
  3  4  2  0  0  0  0
  4  5  1  0  0  0  0
  4 16  1  0  0  0  0
  5  6  2  0  0  0  0
  7  8  1  0  0  0  0
  7  5  1  0  0  0  0
  9 10  1  0  0  0  0
  9  3  1  0  0  0  0
 11 10  2  0  0  0  0
 12 11  1  0  0  0  0
 13 12  1  0  0  0  0
 14 12  2  0  0  0  0
 14 15  1  0  0  0  0
 15  9  2  0  0  0  0
 16 17  3  0  0  0  0
 18 19  1  0  0  0  0
 18  1  1  0  0  0  0
 19 22  1  0  0  0  0
 20 27  1  0  0  0  0
 20 25  1  0  0  0  0
 21 20  2  0  0  0  0
 22 21  1  0  0  0  0
 22 23  2  0  0  0  0
 23 24  1  0  0  0  0
 24 25  2  0  0  0  0
 24 28  1  0  0  0  0
 27 26  1  0  0  0  0
 29 28  1  0  0  0  0
M  END
>  <minimizedAffinity>
-6.88471127

$$$$
