
 OpenBabel09122222393D

 29 31  0  0  0  0  0  0  0  0999 V2000
    8.5530   -3.7830    1.8010 C   0  0  0  0  0  0  0  0  0  0  0  0
    7.6610   -4.5320    2.3440 N   0  0  0  0  0  0  0  0  0  0  0  0
    6.9630   -5.3950    1.5270 C   0  0  0  0  0  0  0  0  0  0  0  0
    7.1870   -5.5360    0.2060 C   0  0  0  0  0  0  0  0  0  0  0  0
    8.2590   -4.6960   -0.3740 C   0  0  0  0  0  0  0  0  0  0  0  0
    8.5870   -4.7570   -1.5540 O   0  0  0  0  0  0  0  0  0  0  0  0
    8.8690   -3.8300    0.4840 N   0  0  0  0  0  0  0  0  0  0  0  0
    9.5880   -3.2220    0.1210 H   0  0  0  0  0  0  0  0  0  0  0  0
    5.8640   -6.1210    2.2060 C   0  0  0  0  0  0  0  0  0  0  0  0
    5.8400   -7.5240    2.1500 C   0  0  0  0  0  3  0  0  0  0  0  0
    4.8090   -8.2400    2.7590 C   0  0  0  0  0  3  0  0  0  0  0  0
    3.7900   -7.5570    3.4180 C   0  0  0  0  0  0  0  0  0  0  0  0
    2.3840   -8.5270    4.2250 Br  0  0  0  0  0  0  0  0  0  0  0  0
    3.7950   -6.1640    3.4750 C   0  0  0  0  0  3  0  0  0  0  0  0
    4.8290   -5.4450    2.8660 C   0  0  0  0  0  3  0  0  0  0  0  0
    6.4510   -6.3960   -0.6500 C   0  0  0  0  0  0  0  0  0  0  0  0
    5.8230   -7.0840   -1.3440 N   0  0  0  0  0  0  0  0  0  0  0  0
    9.4740   -2.5990    2.6640 S   0  0  0  0  0  0  0  0  0  0  0  0
    8.6120   -1.0650    2.2220 C   0  0  0  0  0  2  0  0  0  0  0  0
   10.4300    0.1250   -0.9320 C   0  0  0  0  0  0  0  0  0  0  0  0
    9.7660   -0.6970   -0.0140 C   0  0  0  0  0  3  0  0  0  0  0  0
    9.3190   -0.1930    1.2130 C   0  0  0  0  0  0  0  0  0  0  0  0
    9.5800    1.1510    1.5140 C   0  0  0  0  0  3  0  0  0  0  0  0
   10.2530    1.9800    0.6110 C   0  0  0  0  0  0  0  0  0  0  0  0
   10.6750    1.4650   -0.6140 C   0  0  0  0  0  3  0  0  0  0  0  0
   11.9770   -1.2870   -2.0640 C   0  0  0  0  0  1  0  0  0  0  0  0
   10.7910   -0.5030   -2.0930 O   0  0  0  0  0  0  0  0  0  0  0  0
   10.4300    3.2630    1.0520 O   0  0  0  0  0  0  0  0  0  0  0  0
    9.8810    4.3070    0.2590 C   0  0  0  0  0  1  0  0  0  0  0  0
  1  2  2  0  0  0  0
  1 18  1  0  0  0  0
  3  9  1  0  0  0  0
  3  2  1  0  0  0  0
  4  3  2  0  0  0  0
  5  4  1  0  0  0  0
  5  7  1  0  0  0  0
  6  5  2  0  0  0  0
  7  1  1  0  0  0  0
  8  7  1  0  0  0  0
  9 15  1  0  0  0  0
 10  9  2  0  0  0  0
 10 11  1  0  0  0  0
 11 12  2  0  0  0  0
 12 14  1  0  0  0  0
 12 13  1  0  0  0  0
 15 14  2  0  0  0  0
 16  4  1  0  0  0  0
 17 16  3  0  0  0  0
 19 18  1  0  0  0  0
 20 25  2  0  0  0  0
 20 21  1  0  0  0  0
 21 22  2  0  0  0  0
 22 23  1  0  0  0  0
 22 19  1  0  0  0  0
 24 28  1  0  0  0  0
 24 23  2  0  0  0  0
 25 24  1  0  0  0  0
 27 26  1  0  0  0  0
 27 20  1  0  0  0  0
 29 28  1  0  0  0  0
M  END
>  <minimizedAffinity>
-7.36307287

$$$$
