
 OpenBabel09122222393D

 29 31  0  0  0  0  0  0  0  0999 V2000
    8.1160   -4.6640    0.9290 C   0  0  0  0  0  0  0  0  0  0  0  0
    8.8840   -3.8640    0.2780 N   0  0  0  0  0  0  0  0  0  0  0  0
    9.2940   -2.7100    0.9100 C   0  0  0  0  0  0  0  0  0  0  0  0
    8.9810   -2.3900    2.1810 C   0  0  0  0  0  0  0  0  0  0  0  0
    8.1400   -3.3600    2.9170 C   0  0  0  0  0  0  0  0  0  0  0  0
    7.8170   -3.2050    4.0900 O   0  0  0  0  0  0  0  0  0  0  0  0
    7.7290   -4.4520    2.2110 N   0  0  0  0  0  0  0  0  0  0  0  0
    7.1330   -5.1240    2.6700 H   0  0  0  0  0  0  0  0  0  0  0  0
   10.0620   -1.7830    0.0470 C   0  0  0  0  0  0  0  0  0  0  0  0
    9.7090   -0.4240    0.0270 C   0  0  0  0  0  3  0  0  0  0  0  0
   10.3960    0.4750   -0.7910 C   0  0  0  0  0  3  0  0  0  0  0  0
   11.4320    0.0160   -1.6020 C   0  0  0  0  0  0  0  0  0  0  0  0
   12.3480    1.2310   -2.7240 Br  0  0  0  0  0  0  0  0  0  0  0  0
   11.7880   -1.3310   -1.5990 C   0  0  0  0  0  3  0  0  0  0  0  0
   11.1020   -2.2320   -0.7790 C   0  0  0  0  0  3  0  0  0  0  0  0
    9.3700   -1.1890    2.8300 C   0  0  0  0  0  0  0  0  0  0  0  0
    9.7180   -0.2170    3.3610 N   0  0  0  0  0  0  0  0  0  0  0  0
    7.4560   -6.1190    0.2670 S   0  0  0  0  0  0  0  0  0  0  0  0
    7.7210   -7.2960    1.6230 C   0  0  0  0  0  2  0  0  0  0  0  0
    4.1470   -8.6520    1.8460 C   0  0  0  0  0  0  0  0  0  0  0  0
    5.2490   -7.8730    1.4760 C   0  0  0  0  0  3  0  0  0  0  0  0
    6.5220   -8.1310    1.9990 C   0  0  0  0  0  0  0  0  0  0  0  0
    6.6600   -9.1730    2.9270 C   0  0  0  0  0  3  0  0  0  0  0  0
    5.5650   -9.9510    3.3140 C   0  0  0  0  0  0  0  0  0  0  0  0
    4.3080   -9.6910    2.7690 C   0  0  0  0  0  3  0  0  0  0  0  0
    2.3240   -9.2770    0.4470 C   0  0  0  0  0  1  0  0  0  0  0  0
    2.9730   -8.2920    1.2400 O   0  0  0  0  0  0  0  0  0  0  0  0
    5.8630  -10.9270    4.2260 O   0  0  0  0  0  0  0  0  0  0  0  0
    5.0970  -12.1230    4.1760 C   0  0  0  0  0  1  0  0  0  0  0  0
  1  7  1  0  0  0  0
  2  3  1  0  0  0  0
  2  1  2  0  0  0  0
  3  4  2  0  0  0  0
  4 16  1  0  0  0  0
  4  5  1  0  0  0  0
  5  6  2  0  0  0  0
  7  8  1  0  0  0  0
  7  5  1  0  0  0  0
  9  3  1  0  0  0  0
 10  9  1  0  0  0  0
 11 10  2  0  0  0  0
 12 14  2  0  0  0  0
 12 11  1  0  0  0  0
 13 12  1  0  0  0  0
 14 15  1  0  0  0  0
 15  9  2  0  0  0  0
 16 17  3  0  0  0  0
 18  1  1  0  0  0  0
 18 19  1  0  0  0  0
 19 22  1  0  0  0  0
 20 25  1  0  0  0  0
 21 20  2  0  0  0  0
 21 22  1  0  0  0  0
 22 23  2  0  0  0  0
 23 24  1  0  0  0  0
 24 28  1  0  0  0  0
 25 24  2  0  0  0  0
 26 27  1  0  0  0  0
 27 20  1  0  0  0  0
 29 28  1  0  0  0  0
M  END
>  <minimizedAffinity>
-6.23431826

$$$$
