
 OpenBabel09122222393D

 29 31  0  0  0  0  0  0  0  0999 V2000
    8.2360   -3.1110    2.3910 C   0  0  0  0  0  0  0  0  0  0  0  0
    8.4990   -1.8780    2.1410 N   0  0  0  0  0  0  0  0  0  0  0  0
    9.2680   -1.5960    1.0320 C   0  0  0  0  0  0  0  0  0  0  0  0
    9.7210   -2.5260    0.1690 C   0  0  0  0  0  0  0  0  0  0  0  0
    9.3540   -3.9300    0.4590 C   0  0  0  0  0  0  0  0  0  0  0  0
    9.6710   -4.8650   -0.2690 O   0  0  0  0  0  0  0  0  0  0  0  0
    8.6370   -4.1360    1.6000 N   0  0  0  0  0  0  0  0  0  0  0  0
    8.3890   -5.0830    1.8460 H   0  0  0  0  0  0  0  0  0  0  0  0
    9.6360   -0.1680    0.8930 C   0  0  0  0  0  0  0  0  0  0  0  0
    9.3880    0.7050    1.9650 C   0  0  0  0  0  3  0  0  0  0  0  0
    9.7020    2.0610    1.8610 C   0  0  0  0  0  3  0  0  0  0  0  0
   10.2550    2.5530    0.6810 C   0  0  0  0  0  0  0  0  0  0  0  0
   10.6610    4.3930    0.5360 Br  0  0  0  0  0  0  0  0  0  0  0  0
   10.4990    1.7000   -0.3940 C   0  0  0  0  0  3  0  0  0  0  0  0
   10.1870    0.3410   -0.2910 C   0  0  0  0  0  3  0  0  0  0  0  0
   10.5410   -2.2510   -0.9560 C   0  0  0  0  0  0  0  0  0  0  0  0
   11.2070   -2.0540   -1.8870 N   0  0  0  0  0  0  0  0  0  0  0  0
    7.3440   -3.6460    3.7730 S   0  0  0  0  0  0  0  0  0  0  0  0
    5.6610   -3.7630    3.1040 C   0  0  0  0  0  2  0  0  0  0  0  0
    4.1180   -7.2650    3.2540 C   0  0  0  0  0  0  0  0  0  0  0  0
    4.5170   -5.9750    3.6210 C   0  0  0  0  0  3  0  0  0  0  0  0
    5.2110   -5.1520    2.7250 C   0  0  0  0  0  0  0  0  0  0  0  0
    5.5210   -5.6660    1.4570 C   0  0  0  0  0  3  0  0  0  0  0  0
    5.1390   -6.9570    1.0830 C   0  0  0  0  0  0  0  0  0  0  0  0
    4.4340   -7.7550    1.9830 C   0  0  0  0  0  3  0  0  0  0  0  0
    2.5850   -9.0010    3.8070 C   0  0  0  0  0  1  0  0  0  0  0  0
    3.4350   -7.9420    4.2290 O   0  0  0  0  0  0  0  0  0  0  0  0
    5.5170   -7.3090   -0.1840 O   0  0  0  0  0  0  0  0  0  0  0  0
    6.0390   -6.2840   -1.0190 C   0  0  0  0  0  1  0  0  0  0  0  0
  1 18  1  0  0  0  0
  2  1  2  0  0  0  0
  3  2  1  0  0  0  0
  4  5  1  0  0  0  0
  4  3  2  0  0  0  0
  5  7  1  0  0  0  0
  6  5  2  0  0  0  0
  7  8  1  0  0  0  0
  7  1  1  0  0  0  0
  9  3  1  0  0  0  0
  9 10  1  0  0  0  0
 11 10  2  0  0  0  0
 12 11  1  0  0  0  0
 13 12  1  0  0  0  0
 14 15  1  0  0  0  0
 14 12  2  0  0  0  0
 15  9  2  0  0  0  0
 16  4  1  0  0  0  0
 17 16  3  0  0  0  0
 19 18  1  0  0  0  0
 20 21  1  0  0  0  0
 20 27  1  0  0  0  0
 22 19  1  0  0  0  0
 22 21  2  0  0  0  0
 23 22  1  0  0  0  0
 24 23  2  0  0  0  0
 24 25  1  0  0  0  0
 25 20  2  0  0  0  0
 26 27  1  0  0  0  0
 28 24  1  0  0  0  0
 29 28  1  0  0  0  0
M  END
>  <minimizedAffinity>
-6.22767448

$$$$
