
 OpenBabel09122218233D

 29 31  0  0  0  0  0  0  0  0999 V2000
    8.5790   -3.8070    1.7850 C   0  0  0  0  0  0  0  0  0  0  0  0
    7.6790   -4.5450    2.3300 N   0  0  0  0  0  0  0  0  0  0  0  0
    6.9650   -5.3960    1.5140 C   0  0  0  0  0  0  0  0  0  0  0  0
    7.1810   -5.5360    0.1910 C   0  0  0  0  0  0  0  0  0  0  0  0
    8.2620   -4.7090   -0.3920 C   0  0  0  0  0  0  0  0  0  0  0  0
    8.5830   -4.7700   -1.5730 O   0  0  0  0  0  0  0  0  0  0  0  0
    8.8880   -3.8540    0.4660 N   0  0  0  0  0  0  0  0  0  0  0  0
    9.6140   -3.2540    0.1010 H   0  0  0  0  0  0  0  0  0  0  0  0
    5.8610   -6.1090    2.1960 C   0  0  0  0  0  0  0  0  0  0  0  0
    5.8500   -7.5130    2.1860 C   0  0  0  0  0  3  0  0  0  0  0  0
    4.8130   -8.2180    2.8000 C   0  0  0  0  0  3  0  0  0  0  0  0
    3.7760   -7.5220    3.4160 C   0  0  0  0  0  0  0  0  0  0  0  0
    2.3630   -8.4790    4.2280 Br  0  0  0  0  0  0  0  0  0  0  0  0
    3.7680   -6.1290    3.4260 C   0  0  0  0  0  3  0  0  0  0  0  0
    4.8070   -5.4210    2.8140 C   0  0  0  0  0  3  0  0  0  0  0  0
    6.4300   -6.3830   -0.6640 C   0  0  0  0  0  0  0  0  0  0  0  0
    5.7880   -7.0610   -1.3550 N   0  0  0  0  0  0  0  0  0  0  0  0
    9.5210   -2.6390    2.6470 S   0  0  0  0  0  0  0  0  0  0  0  0
    8.6530   -1.0960    2.2470 C   0  0  0  0  0  2  0  0  0  0  0  0
   10.1550    2.0340    0.6300 C   0  0  0  0  0  0  0  0  0  0  0  0
    9.4930    1.1960    1.5340 C   0  0  0  0  0  3  0  0  0  0  0  0
    9.3740   -0.1780    1.2920 C   0  0  0  0  0  0  0  0  0  0  0  0
    9.9120   -0.6900    0.1020 C   0  0  0  0  0  3  0  0  0  0  0  0
   10.5660    0.1370   -0.8150 C   0  0  0  0  0  0  0  0  0  0  0  0
   10.6890    1.5010   -0.5480 C   0  0  0  0  0  3  0  0  0  0  0  0
    9.6430    4.3020    0.1200 C   0  0  0  0  0  1  0  0  0  0  0  0
   10.2050    3.3480    1.0110 O   0  0  0  0  0  0  0  0  0  0  0  0
   11.0330   -0.5140   -1.9250 O   0  0  0  0  0  0  0  0  0  0  0  0
   11.3470   -1.8930   -1.7880 C   0  0  0  0  0  1  0  0  0  0  0  0
  1  2  2  0  0  0  0
  1 18  1  0  0  0  0
  3  9  1  0  0  0  0
  3  2  1  0  0  0  0
  4  3  2  0  0  0  0
  5  4  1  0  0  0  0
  5  7  1  0  0  0  0
  6  5  2  0  0  0  0
  7  1  1  0  0  0  0
  8  7  1  0  0  0  0
  9 15  1  0  0  0  0
 10  9  2  0  0  0  0
 10 11  1  0  0  0  0
 11 12  2  0  0  0  0
 12 14  1  0  0  0  0
 12 13  1  0  0  0  0
 15 14  2  0  0  0  0
 16  4  1  0  0  0  0
 17 16  3  0  0  0  0
 19 18  1  0  0  0  0
 20 27  1  0  0  0  0
 20 21  1  0  0  0  0
 22 21  2  0  0  0  0
 22 19  1  0  0  0  0
 23 22  1  0  0  0  0
 24 25  1  0  0  0  0
 24 23  2  0  0  0  0
 25 20  2  0  0  0  0
 26 27  1  0  0  0  0
 28 29  1  0  0  0  0
 28 24  1  0  0  0  0
M  END
>  <minimizedAffinity>
-7.44318151

$$$$

 OpenBabel09122218233D

 29 31  0  0  0  0  0  0  0  0999 V2000
    8.5530   -3.7830    1.8010 C   0  0  0  0  0  0  0  0  0  0  0  0
    7.6610   -4.5320    2.3440 N   0  0  0  0  0  0  0  0  0  0  0  0
    6.9630   -5.3950    1.5270 C   0  0  0  0  0  0  0  0  0  0  0  0
    7.1870   -5.5360    0.2060 C   0  0  0  0  0  0  0  0  0  0  0  0
    8.2590   -4.6960   -0.3740 C   0  0  0  0  0  0  0  0  0  0  0  0
    8.5870   -4.7570   -1.5540 O   0  0  0  0  0  0  0  0  0  0  0  0
    8.8690   -3.8300    0.4840 N   0  0  0  0  0  0  0  0  0  0  0  0
    9.5880   -3.2220    0.1210 H   0  0  0  0  0  0  0  0  0  0  0  0
    5.8640   -6.1210    2.2060 C   0  0  0  0  0  0  0  0  0  0  0  0
    5.8400   -7.5240    2.1500 C   0  0  0  0  0  3  0  0  0  0  0  0
    4.8090   -8.2400    2.7590 C   0  0  0  0  0  3  0  0  0  0  0  0
    3.7900   -7.5570    3.4180 C   0  0  0  0  0  0  0  0  0  0  0  0
    2.3840   -8.5270    4.2250 Br  0  0  0  0  0  0  0  0  0  0  0  0
    3.7950   -6.1640    3.4750 C   0  0  0  0  0  3  0  0  0  0  0  0
    4.8290   -5.4450    2.8660 C   0  0  0  0  0  3  0  0  0  0  0  0
    6.4510   -6.3960   -0.6500 C   0  0  0  0  0  0  0  0  0  0  0  0
    5.8230   -7.0840   -1.3440 N   0  0  0  0  0  0  0  0  0  0  0  0
    9.4740   -2.5990    2.6640 S   0  0  0  0  0  0  0  0  0  0  0  0
    8.6120   -1.0650    2.2220 C   0  0  0  0  0  2  0  0  0  0  0  0
   10.4300    0.1250   -0.9320 C   0  0  0  0  0  0  0  0  0  0  0  0
    9.7660   -0.6970   -0.0140 C   0  0  0  0  0  3  0  0  0  0  0  0
    9.3190   -0.1930    1.2130 C   0  0  0  0  0  0  0  0  0  0  0  0
    9.5800    1.1510    1.5140 C   0  0  0  0  0  3  0  0  0  0  0  0
   10.2530    1.9800    0.6110 C   0  0  0  0  0  0  0  0  0  0  0  0
   10.6750    1.4650   -0.6140 C   0  0  0  0  0  3  0  0  0  0  0  0
   11.9770   -1.2870   -2.0640 C   0  0  0  0  0  1  0  0  0  0  0  0
   10.7910   -0.5030   -2.0930 O   0  0  0  0  0  0  0  0  0  0  0  0
   10.4300    3.2630    1.0520 O   0  0  0  0  0  0  0  0  0  0  0  0
    9.8810    4.3070    0.2590 C   0  0  0  0  0  1  0  0  0  0  0  0
  1  2  2  0  0  0  0
  1 18  1  0  0  0  0
  3  9  1  0  0  0  0
  3  2  1  0  0  0  0
  4  3  2  0  0  0  0
  5  4  1  0  0  0  0
  5  7  1  0  0  0  0
  6  5  2  0  0  0  0
  7  1  1  0  0  0  0
  8  7  1  0  0  0  0
  9 15  1  0  0  0  0
 10  9  2  0  0  0  0
 10 11  1  0  0  0  0
 11 12  2  0  0  0  0
 12 14  1  0  0  0  0
 12 13  1  0  0  0  0
 15 14  2  0  0  0  0
 16  4  1  0  0  0  0
 17 16  3  0  0  0  0
 19 18  1  0  0  0  0
 20 25  2  0  0  0  0
 20 21  1  0  0  0  0
 21 22  2  0  0  0  0
 22 23  1  0  0  0  0
 22 19  1  0  0  0  0
 24 28  1  0  0  0  0
 24 23  2  0  0  0  0
 25 24  1  0  0  0  0
 27 26  1  0  0  0  0
 27 20  1  0  0  0  0
 29 28  1  0  0  0  0
M  END
>  <minimizedAffinity>
-7.36307287

$$$$

 OpenBabel09122218233D

 29 31  0  0  0  0  0  0  0  0999 V2000
    6.9370   -5.5210    1.2150 C   0  0  0  0  0  0  0  0  0  0  0  0
    6.4150   -6.6940    1.1530 N   0  0  0  0  0  0  0  0  0  0  0  0
    5.3120   -6.9490    1.9380 C   0  0  0  0  0  0  0  0  0  0  0  0
    4.7170   -6.0350    2.7300 C   0  0  0  0  0  0  0  0  0  0  0  0
    5.3130   -4.6800    2.7350 C   0  0  0  0  0  0  0  0  0  0  0  0
    4.8450   -3.7500    3.3820 O   0  0  0  0  0  0  0  0  0  0  0  0
    6.4340   -4.5170    1.9740 N   0  0  0  0  0  0  0  0  0  0  0  0
    6.8840   -3.6140    1.9710 H   0  0  0  0  0  0  0  0  0  0  0  0
    4.8570   -8.3590    1.9090 C   0  0  0  0  0  0  0  0  0  0  0  0
    3.8670   -8.7350    0.9870 C   0  0  0  0  0  3  0  0  0  0  0  0
    3.3990  -10.0490    0.9460 C   0  0  0  0  0  3  0  0  0  0  0  0
    3.9100  -10.9910    1.8350 C   0  0  0  0  0  0  0  0  0  0  0  0
    3.2600  -12.7650    1.7930 Br  0  0  0  0  0  0  0  0  0  0  0  0
    4.8860  -10.6310    2.7630 C   0  0  0  0  0  3  0  0  0  0  0  0
    5.3580   -9.3150    2.8030 C   0  0  0  0  0  3  0  0  0  0  0  0
    3.6020   -6.2960    3.5670 C   0  0  0  0  0  0  0  0  0  0  0  0
    2.6760   -6.5250    4.2290 N   0  0  0  0  0  0  0  0  0  0  0  0
    8.3600   -5.0500    0.3500 S   0  0  0  0  0  0  0  0  0  0  0  0
    9.1060   -3.8510    1.4900 C   0  0  0  0  0  2  0  0  0  0  0  0
    9.4020   -0.0800    0.8910 C   0  0  0  0  0  0  0  0  0  0  0  0
    9.0730   -1.3080    1.4760 C   0  0  0  0  0  3  0  0  0  0  0  0
    9.4610   -2.5170    0.8830 C   0  0  0  0  0  0  0  0  0  0  0  0
   10.1640   -2.4650   -0.3290 C   0  0  0  0  0  3  0  0  0  0  0  0
   10.4890   -1.2460   -0.9300 C   0  0  0  0  0  0  0  0  0  0  0  0
   10.1090   -0.0520   -0.3150 C   0  0  0  0  0  3  0  0  0  0  0  0
    9.9210    1.6650    2.4250 C   0  0  0  0  0  1  0  0  0  0  0  0
    8.9700    1.0120    1.5940 O   0  0  0  0  0  0  0  0  0  0  0  0
   11.1750   -1.3650   -2.1080 O   0  0  0  0  0  0  0  0  0  0  0  0
   10.9170   -0.3950   -3.1140 C   0  0  0  0  0  1  0  0  0  0  0  0
  1  7  1  0  0  0  0
  2  1  2  0  0  0  0
  2  3  1  0  0  0  0
  3  4  2  0  0  0  0
  4  5  1  0  0  0  0
  4 16  1  0  0  0  0
  5  6  2  0  0  0  0
  7  5  1  0  0  0  0
  8  7  1  0  0  0  0
  9  3  1  0  0  0  0
  9 15  1  0  0  0  0
 10  9  2  0  0  0  0
 11 10  1  0  0  0  0
 11 12  2  0  0  0  0
 12 14  1  0  0  0  0
 13 12  1  0  0  0  0
 14 15  2  0  0  0  0
 16 17  3  0  0  0  0
 18  1  1  0  0  0  0
 18 19  1  0  0  0  0
 20 21  1  0  0  0  0
 20 27  1  0  0  0  0
 22 21  2  0  0  0  0
 22 19  1  0  0  0  0
 23 22  1  0  0  0  0
 24 23  2  0  0  0  0
 24 25  1  0  0  0  0
 25 20  2  0  0  0  0
 27 26  1  0  0  0  0
 28 24  1  0  0  0  0
 29 28  1  0  0  0  0
M  END
>  <minimizedAffinity>
-6.95070076

$$$$

 OpenBabel09122218233D

 29 31  0  0  0  0  0  0  0  0999 V2000
    8.2370   -4.6890    0.5880 C   0  0  0  0  0  0  0  0  0  0  0  0
    8.9980   -3.8390   -0.0050 N   0  0  0  0  0  0  0  0  0  0  0  0
    9.3530   -2.7020    0.6870 C   0  0  0  0  0  0  0  0  0  0  0  0
    8.9930   -2.4460    1.9600 C   0  0  0  0  0  0  0  0  0  0  0  0
    8.1610   -3.4720    2.6290 C   0  0  0  0  0  0  0  0  0  0  0  0
    7.7990   -3.3760    3.7960 O   0  0  0  0  0  0  0  0  0  0  0  0
    7.8060   -4.5440    1.8650 N   0  0  0  0  0  0  0  0  0  0  0  0
    7.2180   -5.2520    2.2770 H   0  0  0  0  0  0  0  0  0  0  0  0
   10.1170   -1.7160   -0.1130 C   0  0  0  0  0  0  0  0  0  0  0  0
    9.7270   -0.3680   -0.0810 C   0  0  0  0  0  3  0  0  0  0  0  0
   10.4100    0.5860   -0.8390 C   0  0  0  0  0  3  0  0  0  0  0  0
   11.4780    0.1930   -1.6410 C   0  0  0  0  0  0  0  0  0  0  0  0
   12.3880    1.4810   -2.6830 Br  0  0  0  0  0  0  0  0  0  0  0  0
   11.8710   -1.1440   -1.6900 C   0  0  0  0  0  3  0  0  0  0  0  0
   11.1900   -2.0990   -0.9300 C   0  0  0  0  0  3  0  0  0  0  0  0
    9.3250   -1.2630    2.6700 C   0  0  0  0  0  0  0  0  0  0  0  0
    9.5930   -0.3100    3.2780 N   0  0  0  0  0  0  0  0  0  0  0  0
    7.6420   -6.1340   -0.1540 S   0  0  0  0  0  0  0  0  0  0  0  0
    5.8460   -5.8980   -0.0370 C   0  0  0  0  0  2  0  0  0  0  0  0
    4.5520   -8.3090    2.6420 C   0  0  0  0  0  0  0  0  0  0  0  0
    5.1650   -7.8190    1.4830 C   0  0  0  0  0  3  0  0  0  0  0  0
    5.2020   -6.4460    1.2120 C   0  0  0  0  0  0  0  0  0  0  0  0
    4.5820   -5.5740    2.1180 C   0  0  0  0  0  3  0  0  0  0  0  0
    3.9560   -6.0500    3.2730 C   0  0  0  0  0  0  0  0  0  0  0  0
    3.9450   -7.4210    3.5350 C   0  0  0  0  0  3  0  0  0  0  0  0
    5.5440  -10.1870    3.7170 C   0  0  0  0  0  1  0  0  0  0  0  0
    4.6110   -9.6700    2.7780 O   0  0  0  0  0  0  0  0  0  0  0  0
    3.3990   -5.0750    4.0540 O   0  0  0  0  0  0  0  0  0  0  0  0
    3.7470   -3.7280    3.7630 C   0  0  0  0  0  1  0  0  0  0  0  0
  1  7  1  0  0  0  0
  2  1  2  0  0  0  0
  2  3  1  0  0  0  0
  3  4  2  0  0  0  0
  4  5  1  0  0  0  0
  4 16  1  0  0  0  0
  5  6  2  0  0  0  0
  7  8  1  0  0  0  0
  7  5  1  0  0  0  0
  9 10  1  0  0  0  0
  9  3  1  0  0  0  0
 11 10  2  0  0  0  0
 12 11  1  0  0  0  0
 13 12  1  0  0  0  0
 14 12  2  0  0  0  0
 14 15  1  0  0  0  0
 15  9  2  0  0  0  0
 16 17  3  0  0  0  0
 18 19  1  0  0  0  0
 18  1  1  0  0  0  0
 19 22  1  0  0  0  0
 20 27  1  0  0  0  0
 20 25  1  0  0  0  0
 21 20  2  0  0  0  0
 22 21  1  0  0  0  0
 22 23  2  0  0  0  0
 23 24  1  0  0  0  0
 24 25  2  0  0  0  0
 24 28  1  0  0  0  0
 27 26  1  0  0  0  0
 29 28  1  0  0  0  0
M  END
>  <minimizedAffinity>
-6.88471127

$$$$

 OpenBabel09122218233D

 29 31  0  0  0  0  0  0  0  0999 V2000
    8.2350   -4.8100    0.6690 C   0  0  0  0  0  0  0  0  0  0  0  0
    8.9970   -3.9710    0.0610 N   0  0  0  0  0  0  0  0  0  0  0  0
    9.3460   -2.8180    0.7310 C   0  0  0  0  0  0  0  0  0  0  0  0
    8.9780   -2.5360    1.9970 C   0  0  0  0  0  0  0  0  0  0  0  0
    8.1460   -3.5500    2.6830 C   0  0  0  0  0  0  0  0  0  0  0  0
    7.7770   -3.4310    3.8460 O   0  0  0  0  0  0  0  0  0  0  0  0
    7.7970   -4.6390    1.9400 N   0  0  0  0  0  0  0  0  0  0  0  0
    7.2090   -5.3400    2.3640 H   0  0  0  0  0  0  0  0  0  0  0  0
   10.1100   -1.8480   -0.0850 C   0  0  0  0  0  0  0  0  0  0  0  0
    9.7490   -0.4910   -0.0440 C   0  0  0  0  0  3  0  0  0  0  0  0
   10.4330    0.4490   -0.8170 C   0  0  0  0  0  3  0  0  0  0  0  0
   11.4750    0.0350   -1.6440 C   0  0  0  0  0  0  0  0  0  0  0  0
   12.3870    1.3050   -2.7050 Br  0  0  0  0  0  0  0  0  0  0  0  0
   11.8400   -1.3100   -1.7020 C   0  0  0  0  0  3  0  0  0  0  0  0
   11.1560   -2.2510   -0.9270 C   0  0  0  0  0  3  0  0  0  0  0  0
    9.3030   -1.3380    2.6830 C   0  0  0  0  0  0  0  0  0  0  0  0
    9.5400   -0.3560    3.2560 N   0  0  0  0  0  0  0  0  0  0  0  0
    7.6470   -6.2720   -0.0460 S   0  0  0  0  0  0  0  0  0  0  0  0
    5.8560   -5.9810   -0.0630 C   0  0  0  0  0  2  0  0  0  0  0  0
    4.0970   -5.8280    3.3350 C   0  0  0  0  0  0  0  0  0  0  0  0
    4.7650   -5.4380    2.1690 C   0  0  0  0  0  3  0  0  0  0  0  0
    5.1240   -6.3780    1.1950 C   0  0  0  0  0  0  0  0  0  0  0  0
    4.8230   -7.7270    1.4310 C   0  0  0  0  0  3  0  0  0  0  0  0
    4.1660   -8.1310    2.5970 C   0  0  0  0  0  0  0  0  0  0  0  0
    3.8000   -7.1780    3.5480 C   0  0  0  0  0  3  0  0  0  0  0  0
    3.7210   -3.4940    3.6200 C   0  0  0  0  0  1  0  0  0  0  0  0
    3.7970   -4.7970    4.1840 O   0  0  0  0  0  0  0  0  0  0  0  0
    3.9450   -9.4790    2.6790 O   0  0  0  0  0  0  0  0  0  0  0  0
    5.0850  -10.3270    2.7060 C   0  0  0  0  0  1  0  0  0  0  0  0
  1  7  1  0  0  0  0
  2  1  2  0  0  0  0
  2  3  1  0  0  0  0
  3  4  2  0  0  0  0
  4  5  1  0  0  0  0
  4 16  1  0  0  0  0
  5  6  2  0  0  0  0
  7  8  1  0  0  0  0
  7  5  1  0  0  0  0
  9 10  1  0  0  0  0
  9  3  1  0  0  0  0
 11 10  2  0  0  0  0
 12 11  1  0  0  0  0
 13 12  1  0  0  0  0
 14 12  2  0  0  0  0
 14 15  1  0  0  0  0
 15  9  2  0  0  0  0
 16 17  3  0  0  0  0
 18  1  1  0  0  0  0
 19 18  1  0  0  0  0
 19 22  1  0  0  0  0
 20 25  1  0  0  0  0
 20 27  1  0  0  0  0
 21 20  2  0  0  0  0
 22 23  2  0  0  0  0
 22 21  1  0  0  0  0
 23 24  1  0  0  0  0
 24 28  1  0  0  0  0
 24 25  2  0  0  0  0
 26 27  1  0  0  0  0
 28 29  1  0  0  0  0
M  END
>  <minimizedAffinity>
-6.68160868

$$$$

 OpenBabel09122218233D

 29 31  0  0  0  0  0  0  0  0999 V2000
    8.2510   -4.5280    0.8430 C   0  0  0  0  0  0  0  0  0  0  0  0
    9.0070   -3.7110    0.2010 N   0  0  0  0  0  0  0  0  0  0  0  0
    9.3850   -2.5490    0.8390 C   0  0  0  0  0  0  0  0  0  0  0  0
    9.0520   -2.2380    2.1070 C   0  0  0  0  0  0  0  0  0  0  0  0
    8.2250   -3.2290    2.8330 C   0  0  0  0  0  0  0  0  0  0  0  0
    7.8870   -3.0830    4.0030 O   0  0  0  0  0  0  0  0  0  0  0  0
    7.8470   -4.3280    2.1200 N   0  0  0  0  0  0  0  0  0  0  0  0
    7.2610   -5.0140    2.5730 H   0  0  0  0  0  0  0  0  0  0  0  0
   10.1410   -1.6040   -0.0150 C   0  0  0  0  0  0  0  0  0  0  0  0
    9.7800   -0.2470   -0.0110 C   0  0  0  0  0  3  0  0  0  0  0  0
   10.4550    0.6690   -0.8190 C   0  0  0  0  0  3  0  0  0  0  0  0
   11.4870    0.2310   -1.6450 C   0  0  0  0  0  0  0  0  0  0  0  0
   12.3870    1.4690   -2.7530 Br  0  0  0  0  0  0  0  0  0  0  0  0
   11.8520   -1.1140   -1.6660 C   0  0  0  0  0  3  0  0  0  0  0  0
   11.1770   -2.0320   -0.8550 C   0  0  0  0  0  3  0  0  0  0  0  0
    9.4070   -1.0300    2.7620 C   0  0  0  0  0  0  0  0  0  0  0  0
    9.7000   -0.0580    3.3240 N   0  0  0  0  0  0  0  0  0  0  0  0
    7.6310   -5.9980    0.1720 S   0  0  0  0  0  0  0  0  0  0  0  0
    7.8380   -7.1530    1.5560 C   0  0  0  0  0  2  0  0  0  0  0  0
    5.5560   -9.8170    3.0930 C   0  0  0  0  0  0  0  0  0  0  0  0
    6.6860   -9.0410    2.8100 C   0  0  0  0  0  3  0  0  0  0  0  0
    6.6290   -7.9930    1.8840 C   0  0  0  0  0  0  0  0  0  0  0  0
    5.4150   -7.7570    1.2230 C   0  0  0  0  0  3  0  0  0  0  0  0
    4.2810   -8.5310    1.4870 C   0  0  0  0  0  0  0  0  0  0  0  0
    4.3530   -9.5600    2.4260 C   0  0  0  0  0  3  0  0  0  0  0  0
    5.2930  -12.0980    3.7200 C   0  0  0  0  0  1  0  0  0  0  0  0
    5.7610  -10.7930    4.0310 O   0  0  0  0  0  0  0  0  0  0  0  0
    3.1770   -8.1760    0.7610 O   0  0  0  0  0  0  0  0  0  0  0  0
    2.2440   -9.2020    0.4490 C   0  0  0  0  0  1  0  0  0  0  0  0
  1  7  1  0  0  0  0
  2  3  1  0  0  0  0
  2  1  2  0  0  0  0
  3  4  2  0  0  0  0
  4 16  1  0  0  0  0
  4  5  1  0  0  0  0
  5  6  2  0  0  0  0
  7  8  1  0  0  0  0
  7  5  1  0  0  0  0
  9 10  1  0  0  0  0
  9  3  1  0  0  0  0
 11 10  2  0  0  0  0
 12 11  1  0  0  0  0
 13 12  1  0  0  0  0
 14 12  2  0  0  0  0
 14 15  1  0  0  0  0
 15  9  2  0  0  0  0
 16 17  3  0  0  0  0
 18  1  1  0  0  0  0
 18 19  1  0  0  0  0
 19 22  1  0  0  0  0
 20 27  1  0  0  0  0
 21 20  1  0  0  0  0
 22 21  2  0  0  0  0
 23 24  2  0  0  0  0
 23 22  1  0  0  0  0
 24 25  1  0  0  0  0
 25 20  2  0  0  0  0
 26 27  1  0  0  0  0
 28 24  1  0  0  0  0
 29 28  1  0  0  0  0
M  END
>  <minimizedAffinity>
-6.42410326

$$$$

 OpenBabel09122218233D

 29 31  0  0  0  0  0  0  0  0999 V2000
    5.2450   -6.9420    1.0550 C   0  0  0  0  0  0  0  0  0  0  0  0
    4.1700   -7.4510    1.5430 N   0  0  0  0  0  0  0  0  0  0  0  0
    4.2960   -8.5500    2.3650 C   0  0  0  0  0  0  0  0  0  0  0  0
    5.4740   -9.0960    2.7260 C   0  0  0  0  0  0  0  0  0  0  0  0
    6.6920   -8.4500    2.1880 C   0  0  0  0  0  0  0  0  0  0  0  0
    7.8250   -8.8250    2.4700 O   0  0  0  0  0  0  0  0  0  0  0  0
    6.4870   -7.4010    1.3400 N   0  0  0  0  0  0  0  0  0  0  0  0
    7.2930   -6.9500    0.9320 H   0  0  0  0  0  0  0  0  0  0  0  0
    3.0070   -9.1550    2.7740 C   0  0  0  0  0  0  0  0  0  0  0  0
    2.2680   -8.5490    3.8020 C   0  0  0  0  0  3  0  0  0  0  0  0
    1.0600   -9.1030    4.2290 C   0  0  0  0  0  3  0  0  0  0  0  0
    0.5910  -10.2730    3.6370 C   0  0  0  0  0  0  0  0  0  0  0  0
   -1.0350  -11.0340    4.2290 Br  0  0  0  0  0  0  0  0  0  0  0  0
    1.3180  -10.8920    2.6200 C   0  0  0  0  0  3  0  0  0  0  0  0
    2.5270  -10.3360    2.1910 C   0  0  0  0  0  3  0  0  0  0  0  0
    5.6130  -10.2470    3.5440 C   0  0  0  0  0  0  0  0  0  0  0  0
    5.6980  -11.1850    4.2230 N   0  0  0  0  0  0  0  0  0  0  0  0
    5.2660   -5.6050   -0.0440 S   0  0  0  0  0  0  0  0  0  0  0  0
    6.9720   -5.6620   -0.6620 C   0  0  0  0  0  2  0  0  0  0  0  0
    8.7190   -3.5750    2.0320 C   0  0  0  0  0  0  0  0  0  0  0  0
    7.8130   -4.4340    1.4000 C   0  0  0  0  0  3  0  0  0  0  0  0
    7.9440   -4.7480    0.0420 C   0  0  0  0  0  0  0  0  0  0  0  0
    8.9930   -4.1570   -0.6770 C   0  0  0  0  0  3  0  0  0  0  0  0
    9.8980   -3.2880   -0.0610 C   0  0  0  0  0  0  0  0  0  0  0  0
    9.7610   -3.0000    1.2970 C   0  0  0  0  0  3  0  0  0  0  0  0
    8.9300   -2.1550    3.9320 C   0  0  0  0  0  1  0  0  0  0  0  0
    8.4720   -3.3760    3.3640 O   0  0  0  0  0  0  0  0  0  0  0  0
   10.8610   -2.7940   -0.8980 O   0  0  0  0  0  0  0  0  0  0  0  0
   12.1940   -3.2460   -0.6970 C   0  0  0  0  0  1  0  0  0  0  0  0
  1  7  1  0  0  0  0
  1  2  2  0  0  0  0
  2  3  1  0  0  0  0
  3  4  2  0  0  0  0
  3  9  1  0  0  0  0
  4 16  1  0  0  0  0
  5  6  2  0  0  0  0
  5  4  1  0  0  0  0
  7  5  1  0  0  0  0
  8  7  1  0  0  0  0
  9 10  1  0  0  0  0
 10 11  2  0  0  0  0
 12 13  1  0  0  0  0
 12 11  1  0  0  0  0
 14 12  2  0  0  0  0
 15 14  1  0  0  0  0
 15  9  2  0  0  0  0
 16 17  3  0  0  0  0
 18  1  1  0  0  0  0
 19 18  1  0  0  0  0
 19 22  1  0  0  0  0
 20 27  1  0  0  0  0
 21 20  1  0  0  0  0
 22 21  2  0  0  0  0
 23 24  2  0  0  0  0
 23 22  1  0  0  0  0
 24 25  1  0  0  0  0
 25 20  2  0  0  0  0
 27 26  1  0  0  0  0
 28 29  1  0  0  0  0
 28 24  1  0  0  0  0
M  END
>  <minimizedAffinity>
-6.31846476

$$$$

 OpenBabel09122218233D

 29 31  0  0  0  0  0  0  0  0999 V2000
    5.2240   -6.9080    1.1640 C   0  0  0  0  0  0  0  0  0  0  0  0
    4.1390   -7.4290    1.6160 N   0  0  0  0  0  0  0  0  0  0  0  0
    4.2470   -8.5470    2.4140 C   0  0  0  0  0  0  0  0  0  0  0  0
    5.4160   -9.1010    2.7880 C   0  0  0  0  0  0  0  0  0  0  0  0
    6.6460   -8.4430    2.2920 C   0  0  0  0  0  0  0  0  0  0  0  0
    7.7720   -8.8260    2.5910 O   0  0  0  0  0  0  0  0  0  0  0  0
    6.4600   -7.3750    1.4660 N   0  0  0  0  0  0  0  0  0  0  0  0
    7.2740   -6.9140    1.0860 H   0  0  0  0  0  0  0  0  0  0  0  0
    2.9490   -9.1610    2.7790 C   0  0  0  0  0  0  0  0  0  0  0  0
    2.2100   -8.6080    3.8380 C   0  0  0  0  0  3  0  0  0  0  0  0
    0.9940   -9.1740    4.2240 C   0  0  0  0  0  3  0  0  0  0  0  0
    0.5160  -10.3020    3.5620 C   0  0  0  0  0  0  0  0  0  0  0  0
   -1.1210  -11.0780    4.0990 Br  0  0  0  0  0  0  0  0  0  0  0  0
    1.2420  -10.8670    2.5150 C   0  0  0  0  0  3  0  0  0  0  0  0
    2.4600  -10.3000    2.1250 C   0  0  0  0  0  3  0  0  0  0  0  0
    5.5380  -10.2720    3.5810 C   0  0  0  0  0  0  0  0  0  0  0  0
    5.6060  -11.2330    4.2290 N   0  0  0  0  0  0  0  0  0  0  0  0
    5.2700   -5.5460    0.0970 S   0  0  0  0  0  0  0  0  0  0  0  0
    6.9120   -5.7210   -0.6550 C   0  0  0  0  0  2  0  0  0  0  0  0
    9.9780   -3.4350   -0.4390 C   0  0  0  0  0  0  0  0  0  0  0  0
    9.0020   -4.3010   -0.9460 C   0  0  0  0  0  3  0  0  0  0  0  0
    7.9670   -4.7770   -0.1320 C   0  0  0  0  0  0  0  0  0  0  0  0
    7.9480   -4.3870    1.2150 C   0  0  0  0  0  3  0  0  0  0  0  0
    8.9230   -3.5320    1.7370 C   0  0  0  0  0  0  0  0  0  0  0  0
    9.9370   -3.0540    0.9060 C   0  0  0  0  0  3  0  0  0  0  0  0
   12.1190   -2.4810   -0.8520 C   0  0  0  0  0  1  0  0  0  0  0  0
   10.9140   -3.0420   -1.3560 O   0  0  0  0  0  0  0  0  0  0  0  0
    8.7660   -3.2470    3.0660 O   0  0  0  0  0  0  0  0  0  0  0  0
    9.9230   -2.8460    3.7880 C   0  0  0  0  0  1  0  0  0  0  0  0
  1  7  1  0  0  0  0
  1  2  2  0  0  0  0
  2  3  1  0  0  0  0
  3  9  1  0  0  0  0
  3  4  2  0  0  0  0
  4 16  1  0  0  0  0
  5  6  2  0  0  0  0
  5  4  1  0  0  0  0
  7  5  1  0  0  0  0
  8  7  1  0  0  0  0
  9 10  1  0  0  0  0
 10 11  2  0  0  0  0
 12 13  1  0  0  0  0
 12 11  1  0  0  0  0
 14 12  2  0  0  0  0
 15 14  1  0  0  0  0
 15  9  2  0  0  0  0
 16 17  3  0  0  0  0
 18  1  1  0  0  0  0
 19 22  1  0  0  0  0
 19 18  1  0  0  0  0
 20 25  1  0  0  0  0
 21 20  2  0  0  0  0
 21 22  1  0  0  0  0
 22 23  2  0  0  0  0
 23 24  1  0  0  0  0
 24 28  1  0  0  0  0
 25 24  2  0  0  0  0
 27 26  1  0  0  0  0
 27 20  1  0  0  0  0
 28 29  1  0  0  0  0
M  END
>  <minimizedAffinity>
-6.28147078

$$$$

 OpenBabel09122218233D

 29 31  0  0  0  0  0  0  0  0999 V2000
    8.1160   -4.6640    0.9290 C   0  0  0  0  0  0  0  0  0  0  0  0
    8.8840   -3.8640    0.2780 N   0  0  0  0  0  0  0  0  0  0  0  0
    9.2940   -2.7100    0.9100 C   0  0  0  0  0  0  0  0  0  0  0  0
    8.9810   -2.3900    2.1810 C   0  0  0  0  0  0  0  0  0  0  0  0
    8.1400   -3.3600    2.9170 C   0  0  0  0  0  0  0  0  0  0  0  0
    7.8170   -3.2050    4.0900 O   0  0  0  0  0  0  0  0  0  0  0  0
    7.7290   -4.4520    2.2110 N   0  0  0  0  0  0  0  0  0  0  0  0
    7.1330   -5.1240    2.6700 H   0  0  0  0  0  0  0  0  0  0  0  0
   10.0620   -1.7830    0.0470 C   0  0  0  0  0  0  0  0  0  0  0  0
    9.7090   -0.4240    0.0270 C   0  0  0  0  0  3  0  0  0  0  0  0
   10.3960    0.4750   -0.7910 C   0  0  0  0  0  3  0  0  0  0  0  0
   11.4320    0.0160   -1.6020 C   0  0  0  0  0  0  0  0  0  0  0  0
   12.3480    1.2310   -2.7240 Br  0  0  0  0  0  0  0  0  0  0  0  0
   11.7880   -1.3310   -1.5990 C   0  0  0  0  0  3  0  0  0  0  0  0
   11.1020   -2.2320   -0.7790 C   0  0  0  0  0  3  0  0  0  0  0  0
    9.3700   -1.1890    2.8300 C   0  0  0  0  0  0  0  0  0  0  0  0
    9.7180   -0.2170    3.3610 N   0  0  0  0  0  0  0  0  0  0  0  0
    7.4560   -6.1190    0.2670 S   0  0  0  0  0  0  0  0  0  0  0  0
    7.7210   -7.2960    1.6230 C   0  0  0  0  0  2  0  0  0  0  0  0
    4.1470   -8.6520    1.8460 C   0  0  0  0  0  0  0  0  0  0  0  0
    5.2490   -7.8730    1.4760 C   0  0  0  0  0  3  0  0  0  0  0  0
    6.5220   -8.1310    1.9990 C   0  0  0  0  0  0  0  0  0  0  0  0
    6.6600   -9.1730    2.9270 C   0  0  0  0  0  3  0  0  0  0  0  0
    5.5650   -9.9510    3.3140 C   0  0  0  0  0  0  0  0  0  0  0  0
    4.3080   -9.6910    2.7690 C   0  0  0  0  0  3  0  0  0  0  0  0
    2.3240   -9.2770    0.4470 C   0  0  0  0  0  1  0  0  0  0  0  0
    2.9730   -8.2920    1.2400 O   0  0  0  0  0  0  0  0  0  0  0  0
    5.8630  -10.9270    4.2260 O   0  0  0  0  0  0  0  0  0  0  0  0
    5.0970  -12.1230    4.1760 C   0  0  0  0  0  1  0  0  0  0  0  0
  1  7  1  0  0  0  0
  2  3  1  0  0  0  0
  2  1  2  0  0  0  0
  3  4  2  0  0  0  0
  4 16  1  0  0  0  0
  4  5  1  0  0  0  0
  5  6  2  0  0  0  0
  7  8  1  0  0  0  0
  7  5  1  0  0  0  0
  9  3  1  0  0  0  0
 10  9  1  0  0  0  0
 11 10  2  0  0  0  0
 12 14  2  0  0  0  0
 12 11  1  0  0  0  0
 13 12  1  0  0  0  0
 14 15  1  0  0  0  0
 15  9  2  0  0  0  0
 16 17  3  0  0  0  0
 18  1  1  0  0  0  0
 18 19  1  0  0  0  0
 19 22  1  0  0  0  0
 20 25  1  0  0  0  0
 21 20  2  0  0  0  0
 21 22  1  0  0  0  0
 22 23  2  0  0  0  0
 23 24  1  0  0  0  0
 24 28  1  0  0  0  0
 25 24  2  0  0  0  0
 26 27  1  0  0  0  0
 27 20  1  0  0  0  0
 29 28  1  0  0  0  0
M  END
>  <minimizedAffinity>
-6.23431826

$$$$

 OpenBabel09122218233D

 29 31  0  0  0  0  0  0  0  0999 V2000
    8.2360   -3.1110    2.3910 C   0  0  0  0  0  0  0  0  0  0  0  0
    8.4990   -1.8780    2.1410 N   0  0  0  0  0  0  0  0  0  0  0  0
    9.2680   -1.5960    1.0320 C   0  0  0  0  0  0  0  0  0  0  0  0
    9.7210   -2.5260    0.1690 C   0  0  0  0  0  0  0  0  0  0  0  0
    9.3540   -3.9300    0.4590 C   0  0  0  0  0  0  0  0  0  0  0  0
    9.6710   -4.8650   -0.2690 O   0  0  0  0  0  0  0  0  0  0  0  0
    8.6370   -4.1360    1.6000 N   0  0  0  0  0  0  0  0  0  0  0  0
    8.3890   -5.0830    1.8460 H   0  0  0  0  0  0  0  0  0  0  0  0
    9.6360   -0.1680    0.8930 C   0  0  0  0  0  0  0  0  0  0  0  0
    9.3880    0.7050    1.9650 C   0  0  0  0  0  3  0  0  0  0  0  0
    9.7020    2.0610    1.8610 C   0  0  0  0  0  3  0  0  0  0  0  0
   10.2550    2.5530    0.6810 C   0  0  0  0  0  0  0  0  0  0  0  0
   10.6610    4.3930    0.5360 Br  0  0  0  0  0  0  0  0  0  0  0  0
   10.4990    1.7000   -0.3940 C   0  0  0  0  0  3  0  0  0  0  0  0
   10.1870    0.3410   -0.2910 C   0  0  0  0  0  3  0  0  0  0  0  0
   10.5410   -2.2510   -0.9560 C   0  0  0  0  0  0  0  0  0  0  0  0
   11.2070   -2.0540   -1.8870 N   0  0  0  0  0  0  0  0  0  0  0  0
    7.3440   -3.6460    3.7730 S   0  0  0  0  0  0  0  0  0  0  0  0
    5.6610   -3.7630    3.1040 C   0  0  0  0  0  2  0  0  0  0  0  0
    4.1180   -7.2650    3.2540 C   0  0  0  0  0  0  0  0  0  0  0  0
    4.5170   -5.9750    3.6210 C   0  0  0  0  0  3  0  0  0  0  0  0
    5.2110   -5.1520    2.7250 C   0  0  0  0  0  0  0  0  0  0  0  0
    5.5210   -5.6660    1.4570 C   0  0  0  0  0  3  0  0  0  0  0  0
    5.1390   -6.9570    1.0830 C   0  0  0  0  0  0  0  0  0  0  0  0
    4.4340   -7.7550    1.9830 C   0  0  0  0  0  3  0  0  0  0  0  0
    2.5850   -9.0010    3.8070 C   0  0  0  0  0  1  0  0  0  0  0  0
    3.4350   -7.9420    4.2290 O   0  0  0  0  0  0  0  0  0  0  0  0
    5.5170   -7.3090   -0.1840 O   0  0  0  0  0  0  0  0  0  0  0  0
    6.0390   -6.2840   -1.0190 C   0  0  0  0  0  1  0  0  0  0  0  0
  1 18  1  0  0  0  0
  2  1  2  0  0  0  0
  3  2  1  0  0  0  0
  4  5  1  0  0  0  0
  4  3  2  0  0  0  0
  5  7  1  0  0  0  0
  6  5  2  0  0  0  0
  7  8  1  0  0  0  0
  7  1  1  0  0  0  0
  9  3  1  0  0  0  0
  9 10  1  0  0  0  0
 11 10  2  0  0  0  0
 12 11  1  0  0  0  0
 13 12  1  0  0  0  0
 14 15  1  0  0  0  0
 14 12  2  0  0  0  0
 15  9  2  0  0  0  0
 16  4  1  0  0  0  0
 17 16  3  0  0  0  0
 19 18  1  0  0  0  0
 20 21  1  0  0  0  0
 20 27  1  0  0  0  0
 22 19  1  0  0  0  0
 22 21  2  0  0  0  0
 23 22  1  0  0  0  0
 24 23  2  0  0  0  0
 24 25  1  0  0  0  0
 25 20  2  0  0  0  0
 26 27  1  0  0  0  0
 28 24  1  0  0  0  0
 29 28  1  0  0  0  0
M  END
>  <minimizedAffinity>
-6.22767448

$$$$
