
 OpenBabel09122222393D

 27 29  0  0  0  0  0  0  0  0999 V2000
   10.2750    2.6370    2.6170 C   0  0  0  0  0  0  0  0  0  0  0  0
   11.0440    3.4340    1.8500 C   0  0  0  0  0  0  0  0  0  0  0  0
   11.4300    3.1220    0.5630 N   0  0  0  0  0  0  0  0  0  0  0  0
   10.9220    2.0620    0.0350 C   0  0  0  0  0  0  0  0  0  0  0  0
   10.0620    1.2330    0.6770 N   0  0  0  0  0  0  0  0  0  0  0  0
    9.7520    1.4050    1.9930 C   0  0  0  0  0  0  0  0  0  0  0  0
    9.0790    0.5800    2.6010 O   0  0  0  0  0  0  0  0  0  0  0  0
    9.6740    0.4330    0.2050 H   0  0  0  0  0  0  0  0  0  0  0  0
   11.4980    4.7510    2.3430 C   0  0  0  0  0  0  0  0  0  0  0  0
   12.6660    4.8600    3.1080 C   0  0  0  0  0  3  0  0  0  0  0  0
   13.0990    6.1130    3.5490 C   0  0  0  0  0  3  0  0  0  0  0  0
   12.3700    7.2530    3.2180 C   0  0  0  0  0  0  0  0  0  0  0  0
   12.7940    8.4500    3.6420 F   0  0  0  0  0  0  0  0  0  0  0  0
   11.2180    7.1700    2.4490 C   0  0  0  0  0  3  0  0  0  0  0  0
   10.7940    5.9210    2.0130 C   0  0  0  0  0  0  0  0  0  0  0  0
    9.6860    5.8470    1.2600 F   0  0  0  0  0  0  0  0  0  0  0  0
    9.4620    3.2530    5.2050 N   0  0  0  0  0  1  0  0  0  0  0  0
    9.8300    2.9730    4.0310 C   0  0  0  0  0  2  0  0  0  0  0  0
   11.2660    1.6390   -1.6070 S   0  0  0  0  0  0  0  0  0  0  0  0
   10.4260    0.0490   -1.8140 C   0  0  0  0  0  2  0  0  0  0  0  0
   11.3040   -1.1740   -1.9200 C   0  0  0  0  0  0  0  0  0  0  0  0
   12.3440   -1.1710   -2.8720 C   0  0  0  0  0  3  0  0  0  0  0  0
   13.1870   -2.2720   -3.0290 C   0  0  0  0  0  3  0  0  0  0  0  0
   13.0150   -3.3940   -2.2280 C   0  0  0  0  0  3  0  0  0  0  0  0
   12.0050   -3.4140   -1.2680 C   0  0  0  0  0  3  0  0  0  0  0  0
   11.1560   -2.3120   -1.1090 C   0  0  0  0  0  0  0  0  0  0  0  0
    9.8410   -2.4300    0.2550 Br  0  0  0  0  0  0  0  0  0  0  0  0
  1 18  1  0  0  0  0
  2  9  1  0  0  0  0
  2  1  2  0  0  0  0
  3  2  1  0  0  0  0
  4  3  2  0  0  0  0
  4  5  1  0  0  0  0
  5  6  1  0  0  0  0
  6  7  2  0  0  0  0
  6  1  1  0  0  0  0
  8  5  1  0  0  0  0
  9 10  1  0  0  0  0
 10 11  2  0  0  0  0
 12 11  1  0  0  0  0
 12 13  1  0  0  0  0
 14 12  2  0  0  0  0
 15  9  2  0  0  0  0
 15 14  1  0  0  0  0
 16 15  1  0  0  0  0
 18 17  1  0  0  0  0
 19  4  1  0  0  0  0
 20 19  1  0  0  0  0
 21 20  1  0  0  0  0
 21 26  1  0  0  0  0
 22 21  2  0  0  0  0
 23 22  1  0  0  0  0
 23 24  2  0  0  0  0
 24 25  1  0  0  0  0
 25 26  2  0  0  0  0
 26 27  1  0  0  0  0
M  END
>  <minimizedAffinity>
-6.64127779

$$$$
