
 OpenBabel09122222393D

 27 29  0  0  0  0  0  0  0  0999 V2000
    7.0980   -5.3760    0.3920 C   0  0  0  0  0  0  0  0  0  0  0  0
    6.9050   -4.9980    1.6710 C   0  0  0  0  0  0  0  0  0  0  0  0
    7.7380   -4.1320    2.3500 N   0  0  0  0  0  0  0  0  0  0  0  0
    8.6810   -3.5700    1.6750 C   0  0  0  0  0  0  0  0  0  0  0  0
    8.9130   -3.8000    0.3590 N   0  0  0  0  0  0  0  0  0  0  0  0
    8.2200   -4.7470   -0.3340 C   0  0  0  0  0  0  0  0  0  0  0  0
    8.5210   -5.0420   -1.4850 O   0  0  0  0  0  0  0  0  0  0  0  0
    9.6490   -3.3110   -0.1250 H   0  0  0  0  0  0  0  0  0  0  0  0
    5.7300   -5.4680    2.4310 C   0  0  0  0  0  0  0  0  0  0  0  0
    5.5320   -6.8360    2.6620 C   0  0  0  0  0  3  0  0  0  0  0  0
    4.4290   -7.2670    3.4030 C   0  0  0  0  0  3  0  0  0  0  0  0
    3.5320   -6.3340    3.9180 C   0  0  0  0  0  0  0  0  0  0  0  0
    2.4800   -6.7570    4.6290 F   0  0  0  0  0  0  0  0  0  0  0  0
    3.7160   -4.9750    3.7140 C   0  0  0  0  0  3  0  0  0  0  0  0
    4.8150   -4.5510    2.9770 C   0  0  0  0  0  0  0  0  0  0  0  0
    4.9960   -3.2350    2.7930 F   0  0  0  0  0  0  0  0  0  0  0  0
    5.4210   -7.0990   -1.0070 N   0  0  0  0  0  1  0  0  0  0  0  0
    6.1810   -6.3180   -0.3730 C   0  0  0  0  0  2  0  0  0  0  0  0
    9.7170   -2.3950    2.4110 S   0  0  0  0  0  0  0  0  0  0  0  0
    8.9660   -0.8180    1.9350 C   0  0  0  0  0  2  0  0  0  0  0  0
    9.6550   -0.0410    0.8400 C   0  0  0  0  0  0  0  0  0  0  0  0
    9.8780   -0.6810   -0.3960 C   0  0  0  0  0  3  0  0  0  0  0  0
   10.5180   -0.0230   -1.4470 C   0  0  0  0  0  3  0  0  0  0  0  0
   10.9370    1.2920   -1.2880 C   0  0  0  0  0  3  0  0  0  0  0  0
   10.7120    1.9500   -0.0810 C   0  0  0  0  0  3  0  0  0  0  0  0
   10.0720    1.2940    0.9770 C   0  0  0  0  0  0  0  0  0  0  0  0
    9.7800    2.2980    2.5620 Br  0  0  0  0  0  0  0  0  0  0  0  0
  1  2  2  0  0  0  0
  2  3  1  0  0  0  0
  2  9  1  0  0  0  0
  4  3  2  0  0  0  0
  4 19  1  0  0  0  0
  5  4  1  0  0  0  0
  6  5  1  0  0  0  0
  6  1  1  0  0  0  0
  7  6  2  0  0  0  0
  8  5  1  0  0  0  0
  9 10  2  0  0  0  0
  9 15  1  0  0  0  0
 10 11  1  0  0  0  0
 11 12  2  0  0  0  0
 12 13  1  0  0  0  0
 14 12  1  0  0  0  0
 15 14  2  0  0  0  0
 16 15  1  0  0  0  0
 17 18  1  0  0  0  0
 18  1  1  0  0  0  0
 20 19  1  0  0  0  0
 21 26  1  0  0  0  0
 21 20  1  0  0  0  0
 22 21  2  0  0  0  0
 23 24  2  0  0  0  0
 23 22  1  0  0  0  0
 24 25  1  0  0  0  0
 25 26  2  0  0  0  0
 26 27  1  0  0  0  0
M  END
>  <minimizedAffinity>
-7.17521715

$$$$
