
 OpenBabel09122222393D

 27 29  0  0  0  0  0  0  0  0999 V2000
    8.8300   -3.7640    0.9370 C   0  0  0  0  0  0  0  0  0  0  0  0
    9.9050   -2.9660    1.0900 C   0  0  0  0  0  0  0  0  0  0  0  0
   10.2900   -2.4160    2.2960 N   0  0  0  0  0  0  0  0  0  0  0  0
    9.6440   -2.7900    3.3470 C   0  0  0  0  0  0  0  0  0  0  0  0
    8.6060   -3.6620    3.3280 N   0  0  0  0  0  0  0  0  0  0  0  0
    8.0860   -4.1300    2.1590 C   0  0  0  0  0  0  0  0  0  0  0  0
    7.0680   -4.8130    2.1420 O   0  0  0  0  0  0  0  0  0  0  0  0
    8.1560   -3.9400    4.1850 H   0  0  0  0  0  0  0  0  0  0  0  0
   10.7900   -2.6590   -0.0530 C   0  0  0  0  0  0  0  0  0  0  0  0
   11.7410   -3.5920   -0.4870 C   0  0  0  0  0  3  0  0  0  0  0  0
   12.5560   -3.3000   -1.5840 C   0  0  0  0  0  3  0  0  0  0  0  0
   12.4140   -2.0840   -2.2480 C   0  0  0  0  0  0  0  0  0  0  0  0
   13.1970   -1.8150   -3.3000 F   0  0  0  0  0  0  0  0  0  0  0  0
   11.4690   -1.1530   -1.8450 C   0  0  0  0  0  3  0  0  0  0  0  0
   10.6610   -1.4480   -0.7550 C   0  0  0  0  0  0  0  0  0  0  0  0
    9.7400   -0.5490   -0.3750 F   0  0  0  0  0  0  0  0  0  0  0  0
    8.0490   -4.9050   -1.4760 N   0  0  0  0  0  1  0  0  0  0  0  0
    8.4040   -4.3880   -0.3820 C   0  0  0  0  0  2  0  0  0  0  0  0
   10.1130   -2.2340    4.9170 S   0  0  0  0  0  0  0  0  0  0  0  0
    9.9320   -0.4370    4.7950 C   0  0  0  0  0  2  0  0  0  0  0  0
   10.8270    0.3970    5.6780 C   0  0  0  0  0  0  0  0  0  0  0  0
   11.3230   -0.1820    6.8650 C   0  0  0  0  0  3  0  0  0  0  0  0
   12.1490    0.5360    7.7310 C   0  0  0  0  0  3  0  0  0  0  0  0
   12.5040    1.8440    7.4230 C   0  0  0  0  0  3  0  0  0  0  0  0
   12.0400    2.4310    6.2470 C   0  0  0  0  0  3  0  0  0  0  0  0
   11.2100    1.7150    5.3770 C   0  0  0  0  0  0  0  0  0  0  0  0
   10.6690    2.5970    3.7840 Br  0  0  0  0  0  0  0  0  0  0  0  0
  1  2  2  0  0  0  0
  1  6  1  0  0  0  0
  2  3  1  0  0  0  0
  3  4  2  0  0  0  0
  4 19  1  0  0  0  0
  5  4  1  0  0  0  0
  5  8  1  0  0  0  0
  6  5  1  0  0  0  0
  7  6  2  0  0  0  0
  9  2  1  0  0  0  0
 10  9  1  0  0  0  0
 11 10  2  0  0  0  0
 12 14  2  0  0  0  0
 12 11  1  0  0  0  0
 13 12  1  0  0  0  0
 14 15  1  0  0  0  0
 15 16  1  0  0  0  0
 15  9  2  0  0  0  0
 17 18  1  0  0  0  0
 18  1  1  0  0  0  0
 20 19  1  0  0  0  0
 20 21  1  0  0  0  0
 21 22  1  0  0  0  0
 22 23  2  0  0  0  0
 24 23  1  0  0  0  0
 25 24  2  0  0  0  0
 26 21  2  0  0  0  0
 26 25  1  0  0  0  0
 27 26  1  0  0  0  0
M  END
>  <minimizedAffinity>
-7.24124575

$$$$
