
 OpenBabel09122222393D

 27 29  0  0  0  0  0  0  0  0999 V2000
    8.7000   -3.5310    0.9790 C   0  0  0  0  0  0  0  0  0  0  0  0
    9.6250   -2.5560    1.0840 C   0  0  0  0  0  0  0  0  0  0  0  0
    9.8550   -1.8350    2.2380 N   0  0  0  0  0  0  0  0  0  0  0  0
    9.2260   -2.2070    3.3000 C   0  0  0  0  0  0  0  0  0  0  0  0
    8.3430   -3.2350    3.3380 N   0  0  0  0  0  0  0  0  0  0  0  0
    7.9640   -3.8940    2.2070 C   0  0  0  0  0  0  0  0  0  0  0  0
    7.0710   -4.7330    2.2270 O   0  0  0  0  0  0  0  0  0  0  0  0
    7.9010   -3.4990    4.2040 H   0  0  0  0  0  0  0  0  0  0  0  0
   10.5040   -2.2200   -0.0540 C   0  0  0  0  0  0  0  0  0  0  0  0
   10.2650   -1.0730   -0.8230 C   0  0  0  0  0  3  0  0  0  0  0  0
   11.1180   -0.7520   -1.8820 C   0  0  0  0  0  3  0  0  0  0  0  0
   12.2090   -1.5700   -2.1660 C   0  0  0  0  0  0  0  0  0  0  0  0
   13.0220   -1.2530   -3.1810 F   0  0  0  0  0  0  0  0  0  0  0  0
   12.4730   -2.7010   -1.4090 C   0  0  0  0  0  3  0  0  0  0  0  0
   11.6220   -3.0150   -0.3570 C   0  0  0  0  0  0  0  0  0  0  0  0
   11.8870   -4.1040    0.3810 F   0  0  0  0  0  0  0  0  0  0  0  0
    8.2340   -5.0130   -1.3270 N   0  0  0  0  0  1  0  0  0  0  0  0
    8.4460   -4.3410   -0.2820 C   0  0  0  0  0  2  0  0  0  0  0  0
    9.5190   -1.4320    4.8190 S   0  0  0  0  0  0  0  0  0  0  0  0
    8.6170   -2.4670    5.9990 C   0  0  0  0  0  2  0  0  0  0  0  0
    7.4930   -1.8080    6.7600 C   0  0  0  0  0  0  0  0  0  0  0  0
    7.7830   -0.6530    7.5150 C   0  0  0  0  0  3  0  0  0  0  0  0
    6.7930    0.0010    8.2490 C   0  0  0  0  0  3  0  0  0  0  0  0
    5.4890   -0.4800    8.2330 C   0  0  0  0  0  3  0  0  0  0  0  0
    5.1750   -1.6100    7.4810 C   0  0  0  0  0  3  0  0  0  0  0  0
    6.1660   -2.2700    6.7440 C   0  0  0  0  0  0  0  0  0  0  0  0
    5.6200   -3.7740    5.7220 Br  0  0  0  0  0  0  0  0  0  0  0  0
  1  2  2  0  0  0  0
  1  6  1  0  0  0  0
  2  3  1  0  0  0  0
  3  4  2  0  0  0  0
  4  5  1  0  0  0  0
  4 19  1  0  0  0  0
  5  8  1  0  0  0  0
  6  7  2  0  0  0  0
  6  5  1  0  0  0  0
  9  2  1  0  0  0  0
 10  9  2  0  0  0  0
 11 10  1  0  0  0  0
 12 11  2  0  0  0  0
 12 14  1  0  0  0  0
 13 12  1  0  0  0  0
 14 15  2  0  0  0  0
 15  9  1  0  0  0  0
 15 16  1  0  0  0  0
 17 18  1  0  0  0  0
 18  1  1  0  0  0  0
 19 20  1  0  0  0  0
 20 21  1  0  0  0  0
 21 22  1  0  0  0  0
 22 23  2  0  0  0  0
 24 23  1  0  0  0  0
 25 24  2  0  0  0  0
 26 21  2  0  0  0  0
 26 25  1  0  0  0  0
 27 26  1  0  0  0  0
M  END
>  <minimizedAffinity>
-7.41917801

$$$$
