
 OpenBabel09122222393D

 27 29  0  0  0  0  0  0  0  0999 V2000
    8.9280   -3.6900    0.9990 C   0  0  0  0  0  0  0  0  0  0  0  0
   10.0250   -2.9150    1.1070 C   0  0  0  0  0  0  0  0  0  0  0  0
   10.4610   -2.3600    2.2930 N   0  0  0  0  0  0  0  0  0  0  0  0
    9.8420   -2.7070    3.3690 C   0  0  0  0  0  0  0  0  0  0  0  0
    8.7840   -3.5550    3.3950 N   0  0  0  0  0  0  0  0  0  0  0  0
    8.2170   -4.0250    2.2490 C   0  0  0  0  0  0  0  0  0  0  0  0
    7.1830   -4.6840    2.2740 O   0  0  0  0  0  0  0  0  0  0  0  0
    8.3570   -3.8140    4.2700 H   0  0  0  0  0  0  0  0  0  0  0  0
   10.8780   -2.6410   -0.0670 C   0  0  0  0  0  0  0  0  0  0  0  0
   11.8210   -3.5840   -0.4970 C   0  0  0  0  0  3  0  0  0  0  0  0
   12.6070   -3.3240   -1.6230 C   0  0  0  0  0  3  0  0  0  0  0  0
   12.4430   -2.1300   -2.3210 C   0  0  0  0  0  0  0  0  0  0  0  0
   13.1970   -1.8910   -3.4010 F   0  0  0  0  0  0  0  0  0  0  0  0
   11.5050   -1.1890   -1.9220 C   0  0  0  0  0  3  0  0  0  0  0  0
   10.7280   -1.4530   -0.8020 C   0  0  0  0  0  0  0  0  0  0  0  0
    9.8140   -0.5450   -0.4270 F   0  0  0  0  0  0  0  0  0  0  0  0
    8.0440   -4.8400   -1.3730 N   0  0  0  0  0  1  0  0  0  0  0  0
    8.4450   -4.3190   -0.2980 C   0  0  0  0  0  2  0  0  0  0  0  0
   10.3740   -2.1440    4.9160 S   0  0  0  0  0  0  0  0  0  0  0  0
    9.5300   -0.5520    5.0950 C   0  0  0  0  0  2  0  0  0  0  0  0
   10.3490    0.6850    4.8220 C   0  0  0  0  0  0  0  0  0  0  0  0
   10.1370    1.3740    3.6090 C   0  0  0  0  0  3  0  0  0  0  0  0
   10.8660    2.5200    3.2900 C   0  0  0  0  0  3  0  0  0  0  0  0
   11.8140    3.0070    4.1810 C   0  0  0  0  0  3  0  0  0  0  0  0
   12.0290    2.3530    5.3930 C   0  0  0  0  0  3  0  0  0  0  0  0
   11.3010    1.2020    5.7170 C   0  0  0  0  0  0  0  0  0  0  0  0
   11.6440    0.4150    7.4100 Br  0  0  0  0  0  0  0  0  0  0  0  0
  1  2  2  0  0  0  0
  1  6  1  0  0  0  0
  2  3  1  0  0  0  0
  3  4  2  0  0  0  0
  4  5  1  0  0  0  0
  4 19  1  0  0  0  0
  5  8  1  0  0  0  0
  6  7  2  0  0  0  0
  6  5  1  0  0  0  0
  9  2  1  0  0  0  0
 10  9  1  0  0  0  0
 11 10  2  0  0  0  0
 12 14  2  0  0  0  0
 12 11  1  0  0  0  0
 13 12  1  0  0  0  0
 14 15  1  0  0  0  0
 15 16  1  0  0  0  0
 15  9  2  0  0  0  0
 17 18  1  0  0  0  0
 18  1  1  0  0  0  0
 19 20  1  0  0  0  0
 21 20  1  0  0  0  0
 21 26  1  0  0  0  0
 22 21  2  0  0  0  0
 23 22  1  0  0  0  0
 23 24  2  0  0  0  0
 24 25  1  0  0  0  0
 25 26  2  0  0  0  0
 26 27  1  0  0  0  0
M  END
>  <minimizedAffinity>
-6.96725988

$$$$
