
 OpenBabel09122222393D

 27 29  0  0  0  0  0  0  0  0999 V2000
    8.4440   -2.9290    4.2750 C   0  0  0  0  0  0  0  0  0  0  0  0
    8.0020   -3.1690    3.0250 C   0  0  0  0  0  0  0  0  0  0  0  0
    6.7600   -3.6990    2.7370 N   0  0  0  0  0  0  0  0  0  0  0  0
    5.9440   -3.8560    3.7210 C   0  0  0  0  0  0  0  0  0  0  0  0
    6.2440   -3.5610    5.0110 N   0  0  0  0  0  0  0  0  0  0  0  0
    7.4960   -3.1700    5.3810 C   0  0  0  0  0  0  0  0  0  0  0  0
    7.7960   -3.0310    6.5620 O   0  0  0  0  0  0  0  0  0  0  0  0
    5.5560   -3.6780    5.7360 H   0  0  0  0  0  0  0  0  0  0  0  0
    8.8290   -2.8280    1.8500 C   0  0  0  0  0  0  0  0  0  0  0  0
    9.3610   -3.8380    1.0380 C   0  0  0  0  0  3  0  0  0  0  0  0
   10.1230   -3.5030   -0.0850 C   0  0  0  0  0  3  0  0  0  0  0  0
   10.3440   -2.1640   -0.3980 C   0  0  0  0  0  0  0  0  0  0  0  0
   11.0730   -1.8530   -1.4770 F   0  0  0  0  0  0  0  0  0  0  0  0
    9.8150   -1.1480    0.3840 C   0  0  0  0  0  3  0  0  0  0  0  0
    9.0580   -1.4870    1.4980 C   0  0  0  0  0  0  0  0  0  0  0  0
    8.5380   -0.5010    2.2450 F   0  0  0  0  0  0  0  0  0  0  0  0
   10.9300   -1.8410    4.8820 N   0  0  0  0  0  1  0  0  0  0  0  0
    9.8030   -2.3340    4.6070 C   0  0  0  0  0  2  0  0  0  0  0  0
    4.3300   -4.4200    3.4510 S   0  0  0  0  0  0  0  0  0  0  0  0
    3.6640   -4.5990    5.1250 C   0  0  0  0  0  2  0  0  0  0  0  0
    3.0800   -3.3610    5.7590 C   0  0  0  0  0  0  0  0  0  0  0  0
    2.1900   -2.5750    4.9970 C   0  0  0  0  0  3  0  0  0  0  0  0
    1.6210   -1.4130    5.5200 C   0  0  0  0  0  3  0  0  0  0  0  0
    1.9200   -1.0190    6.8180 C   0  0  0  0  0  3  0  0  0  0  0  0
    2.7830   -1.7890    7.5960 C   0  0  0  0  0  3  0  0  0  0  0  0
    3.3580   -2.9550    7.0750 C   0  0  0  0  0  0  0  0  0  0  0  0
    4.4860   -3.9490    8.2340 Br  0  0  0  0  0  0  0  0  0  0  0  0
  1 18  1  0  0  0  0
  1  6  1  0  0  0  0
  2  1  2  0  0  0  0
  3  2  1  0  0  0  0
  3  4  2  0  0  0  0
  4  5  1  0  0  0  0
  5  6  1  0  0  0  0
  5  8  1  0  0  0  0
  6  7  2  0  0  0  0
  9  2  1  0  0  0  0
 10  9  2  0  0  0  0
 11 10  1  0  0  0  0
 12 11  2  0  0  0  0
 12 14  1  0  0  0  0
 13 12  1  0  0  0  0
 14 15  2  0  0  0  0
 15  9  1  0  0  0  0
 15 16  1  0  0  0  0
 18 17  1  0  0  0  0
 19  4  1  0  0  0  0
 19 20  1  0  0  0  0
 20 21  1  0  0  0  0
 21 26  1  0  0  0  0
 22 23  1  0  0  0  0
 22 21  2  0  0  0  0
 23 24  2  0  0  0  0
 24 25  1  0  0  0  0
 26 25  2  0  0  0  0
 26 27  1  0  0  0  0
M  END
>  <minimizedAffinity>
-6.78831768

$$$$
