
 OpenBabel09132204463D

 26 28  0  0  1  0  0  0  0  0999 V2000
    4.4860   -5.6850    3.5870 N   0  0  0  0  0  0  0  0  0  0  0  0
    4.3190   -4.5800    2.7960 C   0  0  0  0  0  3  0  0  0  0  0  0
    3.7280   -3.5980    3.4430 N   0  0  0  0  0  0  0  0  0  0  0  0
    3.5270   -4.0810    4.7170 C   0  0  0  0  0  0  0  0  0  0  0  0
    2.9690   -3.5660    5.8800 C   0  0  0  0  0  0  0  0  0  0  0  0
    2.9040   -4.2980    7.0080 N   0  0  0  0  0  0  0  0  0  0  0  0
    3.3970   -5.5490    6.9710 C   0  0  0  0  0  0  0  0  0  0  0  0
    3.3210   -6.2680    8.1280 N   0  0  0  0  0  0  0  0  0  0  0  0
    3.9570   -6.1630    5.9150 N   0  0  0  0  0  0  0  0  0  0  0  0
    3.9940   -5.3800    4.8270 C   0  0  0  0  0  0  0  0  0  0  0  0
    3.7070   -7.1960    8.1330 H   0  0  0  0  0  0  0  0  0  0  0  0
    2.9340   -5.8220    8.9410 H   0  0  0  0  0  0  0  0  0  0  0  0
    3.9760   -7.9060    2.6040 C   0  0  2  0  0  3  0  0  0  0  0  0
    4.8480   -8.8060    1.7400 C   0  0  1  0  0  3  0  0  0  0  0  0
    5.8940   -7.8400    1.1930 C   0  0  2  0  0  3  0  0  0  0  0  0
    6.0210   -6.7580    2.1560 O   0  0  0  0  0  0  0  0  0  0  0  0
    5.0340   -6.9690    3.1930 C   0  0  1  0  0  3  0  0  0  0  0  0
    2.1810   -9.3890    3.0760 C   0  0  0  0  0  1  0  0  0  0  0  0
    3.2840   -8.6590    3.6010 O   0  0  0  0  0  0  0  0  0  0  0  0
    5.4890   -9.7900    2.5630 O   0  0  0  0  0  0  0  0  0  0  0  0
    4.8410  -10.0480    3.2500 H   0  0  0  0  0  0  0  0  0  0  0  0
    5.4800   -7.2150   -0.1410 C   0  0  0  0  0  2  0  0  0  0  0  0
    5.3500   -8.2290   -1.1340 O   0  0  0  0  0  0  0  0  0  0  0  0
    6.0890   -8.8540   -0.9990 H   0  0  0  0  0  0  0  0  0  0  0  0
    2.4480   -2.3060    5.9820 O   0  0  0  0  0  0  0  0  0  0  0  0
    2.1680   -2.3010    6.9130 H   0  0  0  0  0  0  0  0  0  0  0  0
  1 10  1  0  0  0  0
  2  3  2  0  0  0  0
  2  1  1  0  0  0  0
  3  4  1  0  0  0  0
  4 10  2  0  0  0  0
  4  5  1  0  0  0  0
  5 25  1  0  0  0  0
  5  6  2  0  0  0  0
  7  6  1  0  0  0  0
  7  8  1  0  0  0  0
  8 11  1  0  0  0  0
  8 12  1  0  0  0  0
  9  7  2  0  0  0  0
 10  9  1  0  0  0  0
 13 17  1  0  0  0  0
 13 19  1  1  0  0  0
 14 20  1  1  0  0  0
 14 13  1  0  0  0  0
 15 22  1  6  0  0  0
 15 14  1  0  0  0  0
 15 16  1  0  0  0  0
 16 17  1  0  0  0  0
 17  1  1  6  0  0  0
 18 19  1  0  0  0  0
 20 21  1  0  0  0  0
 23 24  1  0  0  0  0
 23 22  1  0  0  0  0
 25 26  1  0  0  0  0
M  END
>  <minimizedAffinity>
-6.11366653

$$$$
