
 OpenBabel09132204463D

 26 28  0  0  1  0  0  0  0  0999 V2000
    3.7090   -7.2720    4.1450 N   0  0  0  0  0  0  0  0  0  0  0  0
    2.5160   -7.3940    4.8060 C   0  0  0  0  0  3  0  0  0  0  0  0
    2.1530   -6.2650    5.3780 N   0  0  0  0  0  0  0  0  0  0  0  0
    3.1440   -5.3660    5.0510 C   0  0  0  0  0  0  0  0  0  0  0  0
    3.3720   -4.0230    5.3210 C   0  0  0  0  0  0  0  0  0  0  0  0
    4.4680   -3.3930    4.8570 N   0  0  0  0  0  0  0  0  0  0  0  0
    5.3370   -4.1090    4.1210 C   0  0  0  0  0  0  0  0  0  0  0  0
    6.4360   -3.4450    3.6600 N   0  0  0  0  0  0  0  0  0  0  0  0
    5.2340   -5.4070    3.7920 N   0  0  0  0  0  0  0  0  0  0  0  0
    4.1220   -5.9750    4.2820 C   0  0  0  0  0  0  0  0  0  0  0  0
    7.0870   -3.9520    3.0850 H   0  0  0  0  0  0  0  0  0  0  0  0
    6.5220   -2.4660    3.8660 H   0  0  0  0  0  0  0  0  0  0  0  0
    4.2120   -9.7010    4.0840 C   0  0  2  0  0  3  0  0  0  0  0  0
    4.5100  -10.5990    2.8910 C   0  0  1  0  0  3  0  0  0  0  0  0
    3.9380   -9.8060    1.7210 C   0  0  2  0  0  3  0  0  0  0  0  0
    3.9790   -8.4020    2.0940 O   0  0  0  0  0  0  0  0  0  0  0  0
    4.4430   -8.3200    3.4630 C   0  0  1  0  0  3  0  0  0  0  0  0
    4.4090  -10.3370    6.3650 C   0  0  0  0  0  1  0  0  0  0  0  0
    5.0960   -9.9750    5.1720 O   0  0  0  0  0  0  0  0  0  0  0  0
    5.9290  -10.7330    2.7320 O   0  0  0  0  0  0  0  0  0  0  0  0
    6.3120  -10.7700    3.6320 H   0  0  0  0  0  0  0  0  0  0  0  0
    2.4780  -10.1570    1.4270 C   0  0  0  0  0  2  0  0  0  0  0  0
    1.9720   -9.3120    0.3960 O   0  0  0  0  0  0  0  0  0  0  0  0
    2.3230   -8.4160    0.5670 H   0  0  0  0  0  0  0  0  0  0  0  0
    2.5320   -3.2420    6.0650 O   0  0  0  0  0  0  0  0  0  0  0  0
    3.0000   -2.3910    6.0320 H   0  0  0  0  0  0  0  0  0  0  0  0
  1 10  1  0  0  0  0
  1  2  1  0  0  0  0
  2  3  2  0  0  0  0
  4  5  1  0  0  0  0
  4  3  1  0  0  0  0
  5 25  1  0  0  0  0
  6  5  2  0  0  0  0
  7  6  1  0  0  0  0
  8 12  1  0  0  0  0
  8  7  1  0  0  0  0
  9  7  2  0  0  0  0
  9 10  1  0  0  0  0
 10  4  2  0  0  0  0
 11  8  1  0  0  0  0
 13 19  1  1  0  0  0
 14 20  1  6  0  0  0
 14 13  1  0  0  0  0
 15 22  1  1  0  0  0
 15 16  1  0  0  0  0
 15 14  1  0  0  0  0
 16 17  1  0  0  0  0
 17 13  1  0  0  0  0
 17  1  1  1  0  0  0
 19 18  1  0  0  0  0
 20 21  1  0  0  0  0
 23 24  1  0  0  0  0
 23 22  1  0  0  0  0
 26 25  1  0  0  0  0
M  END
>  <minimizedAffinity>
-6.2345705

$$$$
