
 OpenBabel09132204463D

 26 28  0  0  1  0  0  0  0  0999 V2000
    4.6980   -6.0400    3.0980 N   0  0  0  0  0  0  0  0  0  0  0  0
    5.5280   -5.3430    2.2610 C   0  0  0  0  0  3  0  0  0  0  0  0
    5.7040   -5.9650    1.1140 N   0  0  0  0  0  0  0  0  0  0  0  0
    4.9320   -7.1020    1.2030 C   0  0  0  0  0  0  0  0  0  0  0  0
    4.6650   -8.1690    0.3560 C   0  0  0  0  0  0  0  0  0  0  0  0
    3.8470   -9.1710    0.7310 N   0  0  0  0  0  0  0  0  0  0  0  0
    3.2970   -9.1040    1.9560 C   0  0  0  0  0  0  0  0  0  0  0  0
    2.4700  -10.1300    2.3090 N   0  0  0  0  0  0  0  0  0  0  0  0
    3.4750   -8.1330    2.8670 N   0  0  0  0  0  0  0  0  0  0  0  0
    4.2970   -7.1660    2.4320 C   0  0  0  0  0  0  0  0  0  0  0  0
    2.0250  -10.0890    3.2100 H   0  0  0  0  0  0  0  0  0  0  0  0
    2.2950  -10.8540    1.6350 H   0  0  0  0  0  0  0  0  0  0  0  0
    3.1010   -4.7920    4.5290 C   0  0  2  0  0  3  0  0  0  0  0  0
    2.5950   -5.1180    5.9270 C   0  0  1  0  0  3  0  0  0  0  0  0
    2.8790   -6.6120    6.0510 C   0  0  2  0  0  3  0  0  0  0  0  0
    4.0030   -6.9060    5.1770 O   0  0  0  0  0  0  0  0  0  0  0  0
    4.3360   -5.6950    4.4590 C   0  0  1  0  0  3  0  0  0  0  0  0
    2.2620   -2.5840    4.2800 C   0  0  0  0  0  1  0  0  0  0  0  0
    3.4180   -3.4050    4.4030 O   0  0  0  0  0  0  0  0  0  0  0  0
    3.3690   -4.4010    6.8990 O   0  0  0  0  0  0  0  0  0  0  0  0
    3.5640   -3.5230    6.5120 H   0  0  0  0  0  0  0  0  0  0  0  0
    1.7050   -7.4770    5.5890 C   0  0  0  0  0  2  0  0  0  0  0  0
    2.1600   -8.7940    5.2880 O   0  0  0  0  0  0  0  0  0  0  0  0
    3.0170   -8.6990    4.8290 H   0  0  0  0  0  0  0  0  0  0  0  0
    5.1950   -8.2980   -0.8980 O   0  0  0  0  0  0  0  0  0  0  0  0
    4.7890   -9.1350   -1.1800 H   0  0  0  0  0  0  0  0  0  0  0  0
  2  1  1  0  0  0  0
  3  4  1  0  0  0  0
  3  2  2  0  0  0  0
  4 10  2  0  0  0  0
  5  6  2  0  0  0  0
  5  4  1  0  0  0  0
  6  7  1  0  0  0  0
  7  8  1  0  0  0  0
  7  9  2  0  0  0  0
  8 11  1  0  0  0  0
 10  9  1  0  0  0  0
 10  1  1  0  0  0  0
 12  8  1  0  0  0  0
 13 19  1  1  0  0  0
 13 14  1  0  0  0  0
 14 15  1  0  0  0  0
 14 20  1  1  0  0  0
 15 22  1  6  0  0  0
 16 15  1  0  0  0  0
 17  1  1  6  0  0  0
 17 13  1  0  0  0  0
 17 16  1  0  0  0  0
 18 19  1  0  0  0  0
 21 20  1  0  0  0  0
 23 22  1  0  0  0  0
 24 23  1  0  0  0  0
 25  5  1  0  0  0  0
 26 25  1  0  0  0  0
M  END
>  <minimizedAffinity>
-5.63265419

$$$$
