
 OpenBabel09132204463D

 26 28  0  0  1  0  0  0  0  0999 V2000
    4.5380   -5.1490    5.0380 N   0  0  0  0  0  0  0  0  0  0  0  0
    3.5420   -5.8790    5.6310 C   0  0  0  0  0  3  0  0  0  0  0  0
    3.1070   -6.8430    4.8480 N   0  0  0  0  0  0  0  0  0  0  0  0
    3.8740   -6.7490    3.7080 C   0  0  0  0  0  0  0  0  0  0  0  0
    3.9360   -7.4540    2.5130 C   0  0  0  0  0  0  0  0  0  0  0  0
    4.8130   -7.1170    1.5480 N   0  0  0  0  0  0  0  0  0  0  0  0
    5.6290   -6.0730    1.7810 C   0  0  0  0  0  0  0  0  0  0  0  0
    6.5090   -5.7560    0.7880 N   0  0  0  0  0  0  0  0  0  0  0  0
    5.6670   -5.3120    2.8870 N   0  0  0  0  0  0  0  0  0  0  0  0
    4.7720   -5.7000    3.8080 C   0  0  0  0  0  0  0  0  0  0  0  0
    7.1470   -4.9950    0.9490 H   0  0  0  0  0  0  0  0  0  0  0  0
    6.5220   -6.3270   -0.0370 H   0  0  0  0  0  0  0  0  0  0  0  0
    4.2760   -3.1220    6.4450 C   0  0  2  0  0  3  0  0  0  0  0  0
    5.2940   -2.4210    7.3330 C   0  0  1  0  0  3  0  0  0  0  0  0
    6.3400   -3.5060    7.5690 C   0  0  2  0  0  3  0  0  0  0  0  0
    6.2910   -4.4030    6.4270 O   0  0  0  0  0  0  0  0  0  0  0  0
    5.2020   -3.9770    5.5740 C   0  0  1  0  0  3  0  0  0  0  0  0
    2.4030   -1.6610    6.4090 C   0  0  0  0  0  1  0  0  0  0  0  0
    3.5150   -2.1800    5.6880 O   0  0  0  0  0  0  0  0  0  0  0  0
    5.8890   -1.3300    6.6170 O   0  0  0  0  0  0  0  0  0  0  0  0
    5.1800   -0.9310    6.0720 H   0  0  0  0  0  0  0  0  0  0  0  0
    6.0530   -4.3430    8.8180 C   0  0  0  0  0  2  0  0  0  0  0  0
    6.2350   -5.7270    8.5290 O   0  0  0  0  0  0  0  0  0  0  0  0
    5.8640   -5.8810    7.6380 H   0  0  0  0  0  0  0  0  0  0  0  0
    3.1340   -8.5200    2.2140 O   0  0  0  0  0  0  0  0  0  0  0  0
    3.4620   -8.7490    1.3280 H   0  0  0  0  0  0  0  0  0  0  0  0
  1  2  1  0  0  0  0
  3  2  2  0  0  0  0
  4 10  2  0  0  0  0
  4  3  1  0  0  0  0
  5  4  1  0  0  0  0
  6  7  1  0  0  0  0
  6  5  2  0  0  0  0
  7  9  2  0  0  0  0
  8 11  1  0  0  0  0
  8  7  1  0  0  0  0
  9 10  1  0  0  0  0
 10  1  1  0  0  0  0
 12  8  1  0  0  0  0
 13 19  1  6  0  0  0
 13 14  1  0  0  0  0
 14 20  1  6  0  0  0
 14 15  1  0  0  0  0
 15 22  1  1  0  0  0
 16 15  1  0  0  0  0
 17  1  1  1  0  0  0
 17 16  1  0  0  0  0
 17 13  1  0  0  0  0
 19 18  1  0  0  0  0
 21 20  1  0  0  0  0
 23 22  1  0  0  0  0
 24 23  1  0  0  0  0
 25  5  1  0  0  0  0
 26 25  1  0  0  0  0
M  END
>  <minimizedAffinity>
-5.62233305

$$$$
