
 OpenBabel09132204463D

 26 28  0  0  1  0  0  0  0  0999 V2000
    3.5660   -4.5800    4.8790 N   0  0  0  0  0  0  0  0  0  0  0  0
    3.2890   -3.7610    3.8170 C   0  0  0  0  0  3  0  0  0  0  0  0
    2.7540   -2.6210    4.2020 N   0  0  0  0  0  0  0  0  0  0  0  0
    2.7080   -2.6970    5.5760 C   0  0  0  0  0  0  0  0  0  0  0  0
    2.2740   -1.8470    6.5860 C   0  0  0  0  0  0  0  0  0  0  0  0
    2.3500   -2.2070    7.8810 N   0  0  0  0  0  0  0  0  0  0  0  0
    2.8610   -3.4180    8.1660 C   0  0  0  0  0  0  0  0  0  0  0  0
    2.9300   -3.7550    9.4860 N   0  0  0  0  0  0  0  0  0  0  0  0
    3.3110   -4.3290    7.2870 N   0  0  0  0  0  0  0  0  0  0  0  0
    3.2100   -3.9100    6.0170 C   0  0  0  0  0  0  0  0  0  0  0  0
    3.3320   -4.6450    9.7260 H   0  0  0  0  0  0  0  0  0  0  0  0
    2.6280   -3.0800   10.1660 H   0  0  0  0  0  0  0  0  0  0  0  0
    3.0150   -6.9710    4.5040 C   0  0  2  0  0  3  0  0  0  0  0  0
    3.8670   -8.0780    3.9000 C   0  0  1  0  0  3  0  0  0  0  0  0
    4.9240   -7.3030    3.1190 C   0  0  2  0  0  3  0  0  0  0  0  0
    5.0750   -6.0120    3.7690 O   0  0  0  0  0  0  0  0  0  0  0  0
    4.0920   -5.9310    4.8280 C   0  0  1  0  0  3  0  0  0  0  0  0
    0.9650   -6.9870    5.7050 C   0  0  0  0  0  1  0  0  0  0  0  0
    2.3180   -7.4280    5.6640 O   0  0  0  0  0  0  0  0  0  0  0  0
    4.4990   -8.8260    4.9480 O   0  0  0  0  0  0  0  0  0  0  0  0
    3.8510   -8.8870    5.6800 H   0  0  0  0  0  0  0  0  0  0  0  0
    4.5110   -7.0380    1.6690 C   0  0  0  0  0  2  0  0  0  0  0  0
    4.8580   -5.7050    1.3010 O   0  0  0  0  0  0  0  0  0  0  0  0
    4.6530   -5.1360    2.0690 H   0  0  0  0  0  0  0  0  0  0  0  0
    1.7430   -0.6080    6.3630 O   0  0  0  0  0  0  0  0  0  0  0  0
    1.5690   -0.3190    7.2760 H   0  0  0  0  0  0  0  0  0  0  0  0
  1 10  1  0  0  0  0
  2  3  2  0  0  0  0
  2  1  1  0  0  0  0
  3  4  1  0  0  0  0
  4 10  2  0  0  0  0
  4  5  1  0  0  0  0
  5  6  2  0  0  0  0
  6  7  1  0  0  0  0
  7  8  1  0  0  0  0
  8 11  1  0  0  0  0
  8 12  1  0  0  0  0
  9  7  2  0  0  0  0
 10  9  1  0  0  0  0
 13 17  1  0  0  0  0
 13 19  1  1  0  0  0
 14 13  1  0  0  0  0
 14 20  1  1  0  0  0
 15 22  1  6  0  0  0
 15 16  1  0  0  0  0
 15 14  1  0  0  0  0
 16 17  1  0  0  0  0
 17  1  1  6  0  0  0
 19 18  1  0  0  0  0
 20 21  1  0  0  0  0
 23 22  1  0  0  0  0
 23 24  1  0  0  0  0
 25  5  1  0  0  0  0
 25 26  1  0  0  0  0
M  END
>  <minimizedAffinity>
-5.76865387

$$$$
