
 OpenBabel09132204463D

 33 36  0  0  1  0  0  0  0  0999 V2000
    1.1100    5.7820   -8.3760 N   0  0  0  0  0  0  0  0  0  0  0  0
    0.7770    5.7550   -6.8530 C   0  0  0  0  0  0  0  0  0  0  0  0
    1.3180    6.3770   -5.9460 O   0  0  0  0  0  0  0  0  0  0  0  0
    0.0230    4.4680   -6.5260 C   0  0  1  0  0  3  0  0  0  0  0  0
   -1.0950    4.3200   -7.2520 C   0  0  1  0  0  3  0  0  0  0  0  0
   -1.5150    5.4520   -8.0800 C   0  0  0  0  0  0  0  0  0  0  0  0
   -2.8720    5.7810   -8.2070 C   0  0  0  0  0  3  0  0  0  0  0  0
   -3.2420    6.9360   -8.8840 C   0  0  0  0  0  3  0  0  0  0  0  0
   -2.2620    7.7860   -9.3860 C   0  0  0  0  0  3  0  0  0  0  0  0
   -0.9030    7.4650   -9.2590 C   0  0  0  0  0  3  0  0  0  0  0  0
   -0.4880    6.2400   -8.6930 C   0  0  0  0  0  0  0  0  0  0  0  0
    1.0460    3.3690   -6.3320 C   0  0  2  0  0  3  0  0  0  0  0  0
    0.5410    2.2270   -5.8640 N   0  0  0  0  0  0  0  0  0  0  0  0
    0.6280    1.9170   -4.2620 S   0  0  0  0  0  0  0  0  0  0  0  0
   -0.5760    1.3070   -3.7500 O   0  0  0  0  0  0  0  0  0  0  0  0
    1.9270    1.4330   -3.8260 O   0  0  0  0  0  0  0  0  0  0  0  0
    0.6450    3.5880   -3.6320 C   0  0  0  0  0  0  0  0  0  0  0  0
   -0.6080    4.3780   -2.5890 C   0  0  0  0  0  3  0  0  0  0  0  0
   -0.5400    6.1620   -2.3340 C   0  0  0  0  0  3  0  0  0  0  0  0
    0.7920    7.1520   -3.1250 C   0  0  0  0  0  3  0  0  0  0  0  0
    1.9530    6.3590   -4.2700 C   0  0  0  0  0  0  0  0  0  0  0  0
    1.8930    4.5730   -4.4880 C   0  0  0  0  0  0  0  0  0  0  0  0
    2.2370    3.9450   -5.7350 N   0  0  0  0  0  0  0  0  0  0  0  0
   -0.3500    1.9340   -6.2460 H   0  0  0  0  0  0  0  0  0  0  0  0
    2.7720    4.5560   -6.3580 H   0  0  0  0  0  0  0  0  0  0  0  0
   -1.6930    3.0940   -7.4470 O   0  0  0  0  0  0  0  0  0  0  0  0
   -2.4820    3.2090   -8.0110 H   0  0  0  0  0  0  0  0  0  0  0  0
    2.7530    5.3450   -9.6290 C   0  0  0  0  0  1  0  0  0  0  0  0
    3.6010    3.8390  -10.0970 C   0  0  0  0  0  2  0  0  0  0  0  0
    3.6670    1.2720   -9.9400 C   0  0  0  0  0  1  0  0  0  0  0  0
    3.1560    2.5630   -9.3540 N   0  0  0  0  0  4  0  0  0  0  0  0
    3.5530    2.6500   -7.8910 C   0  0  0  0  0  1  0  0  0  0  0  0
    2.1240    2.4870   -9.3140 H   0  0  0  0  0  0  0  0  0  0  0  0
  1  2  2  0  0  0  0
  2  3  1  0  0  0  0
  3 21  1  0  0  0  0
  4  2  1  6  0  0  0
  4 12  1  0  0  0  0
  5 26  1  6  0  0  0
  5  4  1  0  0  0  0
  6  5  1  0  0  0  0
  7  6  1  0  0  0  0
  8  7  2  0  0  0  0
  9 10  2  0  0  0  0
  9  8  1  0  0  0  0
 10 11  1  0  0  0  0
 11  1  1  0  0  0  0
 11  6  2  0  0  0  0
 12 13  1  1  0  0  0
 12 23  1  0  0  0  0
 13 14  1  0  0  0  0
 14 16  2  0  0  0  0
 14 15  2  0  0  0  0
 14 17  1  0  0  0  0
 17 18  1  0  0  0  0
 18 19  2  0  0  0  0
 20 19  1  0  0  0  0
 21 20  2  3  0  0  0
 22 21  1  0  0  0  0
 22 17  2  0  0  0  0
 23 22  1  0  0  0  0
 24 13  1  0  0  0  0
 25 23  1  0  0  0  0
 27 26  1  0  0  0  0
 29 28  1  0  0  0  0
 29 31  1  0  0  0  0
 30 31  1  0  0  0  0
 31 33  1  0  0  0  0
 31 32  1  0  0  0  0
M  END
>  <minimizedAffinity>
105.4645

$$$$
