
 OpenBabel09132204463D

 33 35  0  0  1  0  0  0  0  0999 V2000
   -1.7180    0.6790   -3.3280 N   0  0  0  0  0  2  0  0  0  0  0  0
   -1.7180    1.7140   -4.4930 C   0  0  0  0  0  0  0  0  0  0  0  0
   -2.4550    1.7560   -5.4720 O   0  0  0  0  0  0  0  0  0  0  0  0
   -0.3550    2.3980   -4.5580 C   0  0  1  0  0  3  0  0  0  0  0  0
   -0.0130    2.9910   -3.4050 C   0  0  1  0  0  3  0  0  0  0  0  0
   -1.0320    3.0600   -2.3560 C   0  0  0  0  0  0  0  0  0  0  0  0
   -1.1560    4.2030   -1.5540 C   0  0  0  0  0  3  0  0  0  0  0  0
   -2.2130    4.3040   -0.6570 C   0  0  0  0  0  3  0  0  0  0  0  0
   -3.1680    3.2950   -0.5970 C   0  0  0  0  0  3  0  0  0  0  0  0
   -3.0510    2.1510   -1.4000 C   0  0  0  0  0  3  0  0  0  0  0  0
   -1.9270    1.9480   -2.2300 C   0  0  0  0  0  0  0  0  0  0  0  0
    0.5760    1.4990   -5.3450 C   0  0  2  0  0  3  0  0  0  0  0  0
    1.8500    1.8910   -5.3390 N   0  0  0  0  0  0  0  0  0  0  0  0
    2.4200    2.7600   -6.6000 S   0  0  0  0  0  0  0  0  0  0  0  0
    3.3020    3.8240   -6.1850 O   0  0  0  0  0  0  0  0  0  0  0  0
    2.7520    1.9580   -7.7660 O   0  0  0  0  0  0  0  0  0  0  0  0
    0.9080    3.5470   -7.1320 C   0  0  0  0  0  0  0  0  0  0  0  0
    0.5340    5.3200   -7.1230 C   0  0  0  0  0  3  0  0  0  0  0  0
   -1.1630    5.8610   -7.4080 C   0  0  0  0  0  3  0  0  0  0  0  0
   -2.4840    4.6170   -7.7050 C   0  0  0  0  0  3  0  0  0  0  0  0
   -2.1110    2.8480   -7.5760 C   0  0  0  0  0  3  0  0  0  0  0  0
   -0.4060    2.3240   -7.3250 C   0  0  0  0  0  0  0  0  0  0  0  0
   -0.0750    1.1330   -6.5900 N   0  0  0  0  0  0  0  0  0  0  0  0
    2.2150    2.2380   -4.4610 H   0  0  0  0  0  0  0  0  0  0  0  0
   -0.8670    0.4940   -6.4840 H   0  0  0  0  0  0  0  0  0  0  0  0
    1.2940    3.2880   -3.0860 O   0  0  0  0  0  0  0  0  0  0  0  0
    1.3210    3.7040   -2.2020 H   0  0  0  0  0  0  0  0  0  0  0  0
   -1.4590   -1.4040   -3.0810 C   0  0  0  0  0  1  0  0  0  0  0  0
   -1.4540   -2.8020   -4.1980 C   0  0  0  0  0  2  0  0  0  0  0  0
    0.3730   -4.5560   -3.7420 C   0  0  0  0  0  1  0  0  0  0  0  0
   -0.0640   -3.3660   -4.5570 N   0  0  0  0  0  4  0  0  0  0  0  0
   -0.0130   -3.7160   -6.0340 C   0  0  0  0  0  1  0  0  0  0  0  0
    0.6750   -2.6460   -4.4600 H   0  0  0  0  0  0  0  0  0  0  0  0
  1 11  1  0  0  0  0
  2  1  1  0  0  0  0
  3  2  2  0  0  0  0
  4  2  1  1  0  0  0
  4  5  1  0  0  0  0
  5 26  1  1  0  0  0
  5  6  1  0  0  0  0
  6 11  2  0  0  0  0
  6  7  1  0  0  0  0
  7  8  2  0  0  0  0
  8  9  1  0  0  0  0
 10  9  2  0  0  0  0
 11 10  1  0  0  0  0
 12 23  1  6  0  0  0
 12 13  1  0  0  0  0
 12  4  1  0  0  0  0
 13 24  1  0  0  0  0
 14 15  2  0  0  0  0
 14 13  1  0  0  0  0
 16 14  2  0  0  0  0
 17 18  1  0  0  0  0
 17 14  1  0  0  0  0
 19 18  2  0  0  0  0
 20 21  2  0  0  0  0
 20 19  1  0  0  0  0
 21 22  1  0  0  0  0
 22 17  2  0  0  0  0
 22 23  1  0  0  0  0
 23 25  1  0  0  0  0
 26 27  1  0  0  0  0
 29 28  1  0  0  0  0
 31 33  1  0  0  0  0
 31 29  1  0  0  0  0
 31 30  1  0  0  0  0
 32 31  1  0  0  0  0
M  END
>  <minimizedAffinity>
107.843925

$$$$
