
 OpenBabel09092210413D

 28 31  0  0  1  0  0  0  0  0999 V2000
   -1.4060    3.6540   -3.9730 C   0  0  2  0  0  3  0  0  0  0  0  0
   -1.0150    4.7560   -4.9500 C   0  0  0  0  0  2  0  0  0  0  0  0
    0.2930    4.5040   -5.4580 O   0  0  0  0  0  0  0  0  0  0  0  0
    1.2510    4.4500   -4.4710 C   0  0  0  0  0  0  0  0  0  0  0  0
    2.5480    4.7070   -4.9080 C   0  0  0  0  0  3  0  0  0  0  0  0
    3.6030    4.7360   -3.9980 C   0  0  0  0  0  3  0  0  0  0  0  0
    3.3290    4.5210   -2.6420 C   0  0  0  0  0  0  0  0  0  0  0  0
    4.2040    4.5890   -1.5890 N   0  0  0  0  0  0  0  0  0  0  0  0
    3.4710    4.4190   -0.5280 C   0  0  0  0  0  0  0  0  0  0  0  0
    2.1750    4.0970   -0.8550 N   0  0  0  0  0  0  0  0  0  0  0  0
    2.0250    4.2170   -2.2210 C   0  0  0  0  0  0  0  0  0  0  0  0
    0.9400    4.1340   -3.1260 C   0  0  0  0  0  0  0  0  0  0  0  0
   -0.4830    3.8080   -2.7460 C   0  0  0  0  0  2  0  0  0  0  0  0
    1.1790    3.7960    0.1610 C   0  0  0  0  0  2  0  0  0  0  0  0
    1.8130    3.5280    1.5530 C   0  0  2  0  0  3  0  0  0  0  0  0
    2.8620    4.6180    1.7950 C   0  0  0  0  0  2  0  0  0  0  0  0
    3.8590    4.5230    0.7580 N   0  0  0  0  0  0  0  0  0  0  0  0
    4.7740    4.9510    0.9160 H   0  0  0  0  0  0  0  0  0  0  0  0
   -1.2800    2.2380   -4.5720 C   0  0  0  0  0  2  0  0  0  0  0  0
   -2.8410    0.8530   -3.1520 C   0  0  0  0  0  1  0  0  0  0  0  0
   -1.4020    1.1530   -3.5120 N   0  0  0  0  0  4  0  0  0  0  0  0
   -0.6860   -0.1170   -3.9020 C   0  0  0  0  0  1  0  0  0  0  0  0
   -0.9490    1.4700   -2.6460 H   0  0  0  0  0  0  0  0  0  0  0  0
    2.3860    2.0940    1.5990 C   0  0  0  0  0  2  0  0  0  0  0  0
    1.3560    0.9980    1.4200 N   0  0  0  0  0  4  0  0  0  0  0  0
    1.9260   -0.3840    1.2660 C   0  0  0  0  0  1  0  0  0  0  0  0
    0.3310    1.0300    2.5330 C   0  0  0  0  0  1  0  0  0  0  0  0
    0.8130    1.2190    0.5730 H   0  0  0  0  0  0  0  0  0  0  0  0
  1 19  1  6  0  0  0
  1 13  1  0  0  0  0
  2  1  1  0  0  0  0
  3  2  1  0  0  0  0
  3  4  1  0  0  0  0
  4 12  1  0  0  0  0
  5  4  2  0  0  0  0
  5  6  1  0  0  0  0
  6  7  2  0  0  0  0
  7 11  1  0  0  0  0
  7  8  1  0  0  0  0
  8  9  2  0  0  0  0
  9 17  1  0  0  0  0
 10  9  1  0  0  0  0
 10 14  1  0  0  0  0
 11 10  1  0  0  0  0
 12 13  1  0  0  0  0
 12 11  2  0  0  0  0
 14 15  1  0  0  0  0
 15 24  1  6  0  0  0
 15 16  1  0  0  0  0
 17 18  1  0  0  0  0
 17 16  1  0  0  0  0
 19 21  1  0  0  0  0
 21 20  1  0  0  0  0
 21 23  1  0  0  0  0
 22 21  1  0  0  0  0
 25 24  1  0  0  0  0
 25 27  1  0  0  0  0
 26 25  1  0  0  0  0
 28 25  1  0  0  0  0
M  END
>  <minimizedAffinity>
-2.90234303

$$$$
