
 OpenBabel09092210413D

 28 31  0  0  1  0  0  0  0  0999 V2000
    1.6790    0.3590    2.1390 C   0  0  2  0  0  3  0  0  0  0  0  0
    1.9290   -0.3600    3.4580 C   0  0  0  0  0  2  0  0  0  0  0  0
    3.2720   -0.8360    3.4990 O   0  0  0  0  0  0  0  0  0  0  0  0
    3.5640   -1.7090    2.4750 C   0  0  0  0  0  0  0  0  0  0  0  0
    4.6330   -2.5640    2.7300 C   0  0  0  0  0  3  0  0  0  0  0  0
    4.9960   -3.5320    1.7960 C   0  0  0  0  0  3  0  0  0  0  0  0
    4.2550   -3.6390    0.6130 C   0  0  0  0  0  0  0  0  0  0  0  0
    4.3960   -4.5680   -0.3850 N   0  0  0  0  0  0  0  0  0  0  0  0
    3.4250   -4.3270   -1.2130 C   0  0  0  0  0  0  0  0  0  0  0  0
    2.7400   -3.1830   -0.8720 N   0  0  0  0  0  0  0  0  0  0  0  0
    3.2090   -2.7410    0.3480 C   0  0  0  0  0  0  0  0  0  0  0  0
    2.8450   -1.7170    1.2540 C   0  0  0  0  0  0  0  0  0  0  0  0
    1.7380   -0.7160    1.0340 C   0  0  0  0  0  2  0  0  0  0  0  0
    1.6500   -2.6700   -1.6850 C   0  0  0  0  0  2  0  0  0  0  0  0
    1.6040   -3.3170   -3.0950 C   0  0  2  0  0  3  0  0  0  0  0  0
    1.7900   -4.8270   -2.9120 C   0  0  0  0  0  2  0  0  0  0  0  0
    3.0720   -5.0520   -2.2930 N   0  0  0  0  0  0  0  0  0  0  0  0
    3.4980   -5.9790   -2.3670 H   0  0  0  0  0  0  0  0  0  0  0  0
    2.7000    1.4810    1.8570 C   0  0  0  0  0  2  0  0  0  0  0  0
    0.8540    2.8390    0.7970 C   0  0  0  0  0  1  0  0  0  0  0  0
    2.2830    2.3550    0.6820 N   0  0  0  0  0  4  0  0  0  0  0  0
    3.2150    3.5240    0.4740 C   0  0  0  0  0  1  0  0  0  0  0  0
    2.3330    1.8060   -0.1850 H   0  0  0  0  0  0  0  0  0  0  0  0
    2.6720   -2.6660   -4.0030 C   0  0  0  0  0  2  0  0  0  0  0  0
    2.1190   -1.9990   -5.2460 N   0  0  0  0  0  4  0  0  0  0  0  0
    1.2170   -2.8670   -6.0790 C   0  0  0  0  0  1  0  0  0  0  0  0
    1.4330   -0.6940   -4.9020 C   0  0  0  0  0  1  0  0  0  0  0  0
    2.9210   -1.7150   -5.8270 H   0  0  0  0  0  0  0  0  0  0  0  0
  1 19  1  6  0  0  0
  1  2  1  0  0  0  0
  2  3  1  0  0  0  0
  4  5  1  0  0  0  0
  4  3  1  0  0  0  0
  6  5  2  0  0  0  0
  7  6  1  0  0  0  0
  8  7  1  0  0  0  0
  9 10  1  0  0  0  0
  9  8  2  0  0  0  0
 10 11  1  0  0  0  0
 11  7  2  0  0  0  0
 11 12  1  0  0  0  0
 12  4  2  0  0  0  0
 13 12  1  0  0  0  0
 13  1  1  0  0  0  0
 14 10  1  0  0  0  0
 15 24  1  6  0  0  0
 15 16  1  0  0  0  0
 15 14  1  0  0  0  0
 16 17  1  0  0  0  0
 17  9  1  0  0  0  0
 18 17  1  0  0  0  0
 21 20  1  0  0  0  0
 21 19  1  0  0  0  0
 22 21  1  0  0  0  0
 23 21  1  0  0  0  0
 25 27  1  0  0  0  0
 25 24  1  0  0  0  0
 26 25  1  0  0  0  0
 28 25  1  0  0  0  0
M  END
>  <minimizedAffinity>
-2.41862249

$$$$
