
 OpenBabel09092210413D

 28 31  0  0  1  0  0  0  0  0999 V2000
    4.4500   -3.5510   -4.1700 C   0  0  2  0  0  3  0  0  0  0  0  0
    5.1170   -4.8820   -4.4900 C   0  0  0  0  0  2  0  0  0  0  0  0
    4.3590   -5.9470   -3.9210 O   0  0  0  0  0  0  0  0  0  0  0  0
    4.2370   -5.8490   -2.5530 C   0  0  0  0  0  0  0  0  0  0  0  0
    3.9690   -7.0530   -1.9070 C   0  0  0  0  0  3  0  0  0  0  0  0
    3.8750   -7.0990   -0.5180 C   0  0  0  0  0  3  0  0  0  0  0  0
    4.0750   -5.9200    0.2110 C   0  0  0  0  0  0  0  0  0  0  0  0
    4.1080   -5.7710    1.5730 N   0  0  0  0  0  0  0  0  0  0  0  0
    4.4250   -4.5260    1.7700 C   0  0  0  0  0  0  0  0  0  0  0  0
    4.4580   -3.8190    0.5910 N   0  0  0  0  0  0  0  0  0  0  0  0
    4.3000   -4.7050   -0.4540 C   0  0  0  0  0  0  0  0  0  0  0  0
    4.3540   -4.6150   -1.8660 C   0  0  0  0  0  0  0  0  0  0  0  0
    4.5850   -3.3460   -2.6470 C   0  0  0  0  0  2  0  0  0  0  0  0
    4.7260   -2.3900    0.5600 C   0  0  0  0  0  2  0  0  0  0  0  0
    4.6020   -1.7320    1.9610 C   0  0  2  0  0  3  0  0  0  0  0  0
    5.3350   -2.6360    2.9580 C   0  0  0  0  0  2  0  0  0  0  0  0
    4.6960   -3.9290    2.9470 N   0  0  0  0  0  0  0  0  0  0  0  0
    4.8400   -4.5540    3.7430 H   0  0  0  0  0  0  0  0  0  0  0  0
    2.9670   -3.4970   -4.5930 C   0  0  0  0  0  2  0  0  0  0  0  0
    1.9500   -1.5030   -5.7600 C   0  0  0  0  0  1  0  0  0  0  0  0
    2.3750   -2.1040   -4.4380 N   0  0  0  0  0  4  0  0  0  0  0  0
    1.2280   -2.0710   -3.4570 C   0  0  0  0  0  1  0  0  0  0  0  0
    3.0870   -1.4730   -4.0500 H   0  0  0  0  0  0  0  0  0  0  0  0
    3.1120   -1.5100    2.3040 C   0  0  0  0  0  2  0  0  0  0  0  0
    2.3280   -0.7590    1.2460 N   0  0  0  0  0  4  0  0  0  0  0  0
    1.1110   -1.4790    0.7360 C   0  0  0  0  0  1  0  0  0  0  0  0
    1.9640    0.6300    1.7230 C   0  0  0  0  0  1  0  0  0  0  0  0
    2.9620   -0.5940    0.4510 H   0  0  0  0  0  0  0  0  0  0  0  0
  1 19  1  1  0  0  0
  1 13  1  0  0  0  0
  2  1  1  0  0  0  0
  2  3  1  0  0  0  0
  3  4  1  0  0  0  0
  4  5  2  0  0  0  0
  4 12  1  0  0  0  0
  5  6  1  0  0  0  0
  6  7  2  0  0  0  0
  7  8  1  0  0  0  0
  8  9  2  0  0  0  0
  9 17  1  0  0  0  0
 10  9  1  0  0  0  0
 11  7  1  0  0  0  0
 11 10  1  0  0  0  0
 12 11  2  0  0  0  0
 13 12  1  0  0  0  0
 14 10  1  0  0  0  0
 14 15  1  0  0  0  0
 15 24  1  1  0  0  0
 15 16  1  0  0  0  0
 17 16  1  0  0  0  0
 17 18  1  0  0  0  0
 19 21  1  0  0  0  0
 20 21  1  0  0  0  0
 21 23  1  0  0  0  0
 21 22  1  0  0  0  0
 25 27  1  0  0  0  0
 25 24  1  0  0  0  0
 26 25  1  0  0  0  0
 28 25  1  0  0  0  0
M  END
>  <minimizedAffinity>
-2.522578

$$$$
