
 OpenBabel09092210413D

 28 31  0  0  1  0  0  0  0  0999 V2000
    2.0430   -2.7340    1.1320 C   0  0  2  0  0  3  0  0  0  0  0  0
    2.6120   -4.1290    1.3570 C   0  0  0  0  0  2  0  0  0  0  0  0
    3.9130   -4.2150    0.7830 O   0  0  0  0  0  0  0  0  0  0  0  0
    3.9210   -3.9660   -0.5710 C   0  0  0  0  0  0  0  0  0  0  0  0
    5.0070   -4.5060   -1.2540 C   0  0  0  0  0  3  0  0  0  0  0  0
    5.1050   -4.3700   -2.6370 C   0  0  0  0  0  3  0  0  0  0  0  0
    4.0850   -3.7010   -3.3230 C   0  0  0  0  0  0  0  0  0  0  0  0
    3.9520   -3.5350   -4.6770 N   0  0  0  0  0  0  0  0  0  0  0  0
    2.8050   -2.9460   -4.8360 C   0  0  0  0  0  0  0  0  0  0  0  0
    2.2470   -2.5900   -3.6300 N   0  0  0  0  0  0  0  0  0  0  0  0
    3.0180   -3.1210   -2.6180 C   0  0  0  0  0  0  0  0  0  0  0  0
    2.9130   -3.2000   -1.2080 C   0  0  0  0  0  0  0  0  0  0  0  0
    1.8020   -2.5980   -0.3860 C   0  0  0  0  0  2  0  0  0  0  0  0
    0.9920   -1.8600   -3.5500 C   0  0  0  0  0  2  0  0  0  0  0  0
    0.5780   -1.2400   -4.9120 C   0  0  2  0  0  3  0  0  0  0  0  0
    0.7820   -2.3160   -5.9850 C   0  0  0  0  0  2  0  0  0  0  0  0
    2.1770   -2.6800   -5.9980 N   0  0  0  0  0  0  0  0  0  0  0  0
    2.5560   -3.1430   -6.8270 H   0  0  0  0  0  0  0  0  0  0  0  0
    2.9730   -1.6110    1.6340 C   0  0  0  0  0  2  0  0  0  0  0  0
    5.2550   -1.5550    2.7120 C   0  0  0  0  0  1  0  0  0  0  0  0
    3.8310   -2.0570    2.8100 N   0  0  0  0  0  4  0  0  0  0  0  0
    3.2320   -1.6710    4.1400 C   0  0  0  0  0  1  0  0  0  0  0  0
    3.8870   -3.0830    2.8200 H   0  0  0  0  0  0  0  0  0  0  0  0
    1.3860    0.0510   -5.1670 C   0  0  0  0  0  2  0  0  0  0  0  0
    0.9140    1.2550   -4.3770 N   0  0  0  0  0  4  0  0  0  0  0  0
    1.5590    2.5560   -4.7660 C   0  0  0  0  0  1  0  0  0  0  0  0
   -0.5940    1.3740   -4.4180 C   0  0  0  0  0  1  0  0  0  0  0  0
    1.1250    1.0740   -3.3840 H   0  0  0  0  0  0  0  0  0  0  0  0
  1  2  1  0  0  0  0
  1 19  1  6  0  0  0
  3  2  1  0  0  0  0
  4  3  1  0  0  0  0
  5  4  2  0  0  0  0
  6  5  1  0  0  0  0
  7  6  2  0  0  0  0
  7 11  1  0  0  0  0
  8  7  1  0  0  0  0
  9  8  2  0  0  0  0
  9 10  1  0  0  0  0
 10 14  1  0  0  0  0
 10 11  1  0  0  0  0
 11 12  2  0  0  0  0
 12  4  1  0  0  0  0
 12 13  1  0  0  0  0
 13  1  1  0  0  0  0
 15 24  1  6  0  0  0
 15 14  1  0  0  0  0
 16 15  1  0  0  0  0
 17 16  1  0  0  0  0
 17  9  1  0  0  0  0
 18 17  1  0  0  0  0
 19 21  1  0  0  0  0
 20 21  1  0  0  0  0
 21 23  1  0  0  0  0
 21 22  1  0  0  0  0
 24 25  1  0  0  0  0
 25 28  1  0  0  0  0
 26 25  1  0  0  0  0
 27 25  1  0  0  0  0
M  END
>  <minimizedAffinity>
-2.86653137

$$$$
