
 OpenBabel09092210413D

 28 31  0  0  1  0  0  0  0  0999 V2000
    1.8300   -2.6740    1.0430 C   0  0  2  0  0  3  0  0  0  0  0  0
    2.3860   -4.0720    1.2790 C   0  0  0  0  0  2  0  0  0  0  0  0
    3.7060   -4.1590    0.7490 O   0  0  0  0  0  0  0  0  0  0  0  0
    3.7610   -3.9010   -0.6020 C   0  0  0  0  0  0  0  0  0  0  0  0
    4.8690   -4.4410   -1.2510 C   0  0  0  0  0  3  0  0  0  0  0  0
    5.0140   -4.2970   -2.6290 C   0  0  0  0  0  3  0  0  0  0  0  0
    4.0200   -3.6200   -3.3460 C   0  0  0  0  0  0  0  0  0  0  0  0
    3.9350   -3.4450   -4.7020 N   0  0  0  0  0  0  0  0  0  0  0  0
    2.7950   -2.8520   -4.8970 C   0  0  0  0  0  0  0  0  0  0  0  0
    2.1970   -2.5010   -3.7090 N   0  0  0  0  0  0  0  0  0  0  0  0
    2.9320   -3.0410   -2.6740 C   0  0  0  0  0  0  0  0  0  0  0  0
    2.7780   -3.1280   -1.2690 C   0  0  0  0  0  0  0  0  0  0  0  0
    1.6410   -2.5280   -0.4820 C   0  0  0  0  0  2  0  0  0  0  0  0
    0.9430   -1.7670   -3.6670 C   0  0  0  0  0  2  0  0  0  0  0  0
    0.5770   -1.1380   -5.0390 C   0  0  2  0  0  3  0  0  0  0  0  0
    0.8150   -2.2070   -6.1110 C   0  0  0  0  0  2  0  0  0  0  0  0
    2.2080   -2.5770   -6.0780 N   0  0  0  0  0  0  0  0  0  0  0  0
    2.6140   -3.0350   -6.8970 H   0  0  0  0  0  0  0  0  0  0  0  0
    2.7460   -1.5560    1.5840 C   0  0  0  0  0  2  0  0  0  0  0  0
    1.5300   -0.3460    3.4360 C   0  0  0  0  0  1  0  0  0  0  0  0
    1.9620   -0.3150    1.9860 N   0  0  0  0  0  4  0  0  0  0  0  0
    2.7130    0.9610    1.6930 C   0  0  0  0  0  1  0  0  0  0  0  0
    1.1010   -0.2610    1.4290 H   0  0  0  0  0  0  0  0  0  0  0  0
    1.3980    0.1530   -5.2570 C   0  0  0  0  0  2  0  0  0  0  0  0
    0.9790    1.3200   -4.3870 N   0  0  0  0  0  4  0  0  0  0  0  0
    1.6780    2.6150   -4.6910 C   0  0  0  0  0  1  0  0  0  0  0  0
   -0.5230    1.5060   -4.4150 C   0  0  0  0  0  1  0  0  0  0  0  0
    1.1820    1.0650   -3.4100 H   0  0  0  0  0  0  0  0  0  0  0  0
  1  2  1  0  0  0  0
  1 19  1  6  0  0  0
  3  2  1  0  0  0  0
  4  3  1  0  0  0  0
  5  4  1  0  0  0  0
  6  5  2  0  0  0  0
  7 11  2  0  0  0  0
  7  6  1  0  0  0  0
  8  7  1  0  0  0  0
  9  8  2  0  0  0  0
  9 10  1  0  0  0  0
 10 14  1  0  0  0  0
 10 11  1  0  0  0  0
 11 12  1  0  0  0  0
 12  4  2  0  0  0  0
 12 13  1  0  0  0  0
 13  1  1  0  0  0  0
 15 24  1  6  0  0  0
 15 14  1  0  0  0  0
 16 17  1  0  0  0  0
 16 15  1  0  0  0  0
 17  9  1  0  0  0  0
 18 17  1  0  0  0  0
 19 21  1  0  0  0  0
 21 20  1  0  0  0  0
 22 21  1  0  0  0  0
 23 21  1  0  0  0  0
 24 25  1  0  0  0  0
 25 28  1  0  0  0  0
 26 25  1  0  0  0  0
 27 25  1  0  0  0  0
M  END
>  <minimizedAffinity>
-2.65029502

$$$$
