
 OpenBabel09092210413D

 28 31  0  0  1  0  0  0  0  0999 V2000
   -0.2210   -0.2170   -3.8800 C   0  0  2  0  0  3  0  0  0  0  0  0
   -1.1600   -0.4690   -5.0530 C   0  0  0  0  0  2  0  0  0  0  0  0
   -1.7550   -1.7570   -4.9220 O   0  0  0  0  0  0  0  0  0  0  0  0
   -0.8290   -2.7760   -4.8920 C   0  0  0  0  0  0  0  0  0  0  0  0
   -1.3260   -4.0220   -5.2650 C   0  0  0  0  0  3  0  0  0  0  0  0
   -0.4780   -5.1260   -5.3280 C   0  0  0  0  0  3  0  0  0  0  0  0
    0.8790   -4.9520   -5.0290 C   0  0  0  0  0  0  0  0  0  0  0  0
    1.8820   -5.8820   -5.1120 N   0  0  0  0  0  0  0  0  0  0  0  0
    2.9730   -5.2300   -4.8390 C   0  0  0  0  0  0  0  0  0  0  0  0
    2.7050   -3.9410   -4.4380 N   0  0  0  0  0  0  0  0  0  0  0  0
    1.3580   -3.7010   -4.6100 C   0  0  0  0  0  0  0  0  0  0  0  0
    0.5140   -2.5710   -4.4900 C   0  0  0  0  0  0  0  0  0  0  0  0
    0.9570   -1.2000   -4.0430 C   0  0  0  0  0  2  0  0  0  0  0  0
    3.7600   -3.0330   -4.0160 C   0  0  0  0  0  2  0  0  0  0  0  0
    5.0970   -3.7690   -3.7300 C   0  0  2  0  0  3  0  0  0  0  0  0
    5.3350   -4.7510   -4.8820 C   0  0  0  0  0  2  0  0  0  0  0  0
    4.2380   -5.6870   -4.9100 N   0  0  0  0  0  0  0  0  0  0  0  0
    4.3650   -6.5770   -5.3960 H   0  0  0  0  0  0  0  0  0  0  0  0
   -0.8980   -0.4060   -2.5070 C   0  0  0  0  0  2  0  0  0  0  0  0
   -0.6160    1.4190   -0.7870 C   0  0  0  0  0  1  0  0  0  0  0  0
   -0.0510    0.1410   -1.3680 N   0  0  0  0  0  4  0  0  0  0  0  0
    0.1720   -0.8750   -0.2750 C   0  0  0  0  0  1  0  0  0  0  0  0
    0.8850    0.3750   -1.7220 H   0  0  0  0  0  0  0  0  0  0  0  0
    5.0360   -4.4440   -2.3420 C   0  0  0  0  0  2  0  0  0  0  0  0
    4.2700   -3.6610   -1.2950 N   0  0  0  0  0  4  0  0  0  0  0  0
    3.1470   -4.4170   -0.6400 C   0  0  0  0  0  1  0  0  0  0  0  0
    5.2050   -3.0890   -0.2520 C   0  0  0  0  0  1  0  0  0  0  0  0
    3.8730   -2.8320   -1.7590 H   0  0  0  0  0  0  0  0  0  0  0  0
  1 19  1  1  0  0  0
  2  3  1  0  0  0  0
  2  1  1  0  0  0  0
  3  4  1  0  0  0  0
  4 12  1  0  0  0  0
  5  4  2  0  0  0  0
  6  5  1  0  0  0  0
  6  7  2  0  0  0  0
  7 11  1  0  0  0  0
  8  7  1  0  0  0  0
  8  9  2  0  0  0  0
  9 10  1  0  0  0  0
 10 14  1  0  0  0  0
 11 12  2  0  0  0  0
 11 10  1  0  0  0  0
 12 13  1  0  0  0  0
 13  1  1  0  0  0  0
 14 15  1  0  0  0  0
 15 24  1  1  0  0  0
 16 15  1  0  0  0  0
 17 16  1  0  0  0  0
 17  9  1  0  0  0  0
 18 17  1  0  0  0  0
 19 21  1  0  0  0  0
 21 20  1  0  0  0  0
 21 22  1  0  0  0  0
 23 21  1  0  0  0  0
 24 25  1  0  0  0  0
 25 26  1  0  0  0  0
 25 27  1  0  0  0  0
 28 25  1  0  0  0  0
M  END
>  <minimizedAffinity>
-2.4223938

$$$$
