
 OpenBabel09092210413D

 28 31  0  0  1  0  0  0  0  0999 V2000
    4.5760   -3.9140   -2.8890 C   0  0  2  0  0  3  0  0  0  0  0  0
    5.0010   -5.3770   -2.8970 C   0  0  0  0  0  2  0  0  0  0  0  0
    4.0400   -6.1600   -2.1940 O   0  0  0  0  0  0  0  0  0  0  0  0
    3.8840   -5.7690   -0.8820 C   0  0  0  0  0  0  0  0  0  0  0  0
    3.3750   -6.7530   -0.0400 C   0  0  0  0  0  3  0  0  0  0  0  0
    3.2210   -6.5020    1.3210 C   0  0  0  0  0  3  0  0  0  0  0  0
    3.6040   -5.2520    1.8240 C   0  0  0  0  0  0  0  0  0  0  0  0
    3.6100   -4.8400    3.1310 N   0  0  0  0  0  0  0  0  0  0  0  0
    4.1410   -3.6540    3.1100 C   0  0  0  0  0  0  0  0  0  0  0  0
    4.3490   -3.2150    1.8230 N   0  0  0  0  0  0  0  0  0  0  0  0
    4.0730   -4.2530    0.9570 C   0  0  0  0  0  0  0  0  0  0  0  0
    4.1970   -4.4600   -0.4370 C   0  0  0  0  0  0  0  0  0  0  0  0
    4.6880   -3.4330   -1.4270 C   0  0  0  0  0  2  0  0  0  0  0  0
    4.8750   -1.8890    1.5390 C   0  0  0  0  0  2  0  0  0  0  0  0
    4.8180   -0.9510    2.7750 C   0  0  2  0  0  3  0  0  0  0  0  0
    5.3340   -1.7480    3.9780 C   0  0  0  0  0  2  0  0  0  0  0  0
    4.4710   -2.8870    4.1680 N   0  0  0  0  0  0  0  0  0  0  0  0
    4.4670   -3.3540    5.0770 H   0  0  0  0  0  0  0  0  0  0  0  0
    3.1460   -3.6940   -3.4240 C   0  0  0  0  0  2  0  0  0  0  0  0
    3.0880   -3.8460   -5.9430 C   0  0  0  0  0  1  0  0  0  0  0  0
    3.1360   -2.9290   -4.7400 N   0  0  0  0  0  4  0  0  0  0  0  0
    2.0190   -1.9170   -4.8100 C   0  0  0  0  0  1  0  0  0  0  0  0
    4.0050   -2.3870   -4.8250 H   0  0  0  0  0  0  0  0  0  0  0  0
    3.3820   -0.4120    2.9570 C   0  0  0  0  0  2  0  0  0  0  0  0
    2.7410    0.1130    1.6880 N   0  0  0  0  0  4  0  0  0  0  0  0
    1.4120   -0.5030    1.3530 C   0  0  0  0  0  1  0  0  0  0  0  0
    2.6370    1.6220    1.7160 C   0  0  0  0  0  1  0  0  0  0  0  0
    3.3910   -0.0800    0.9120 H   0  0  0  0  0  0  0  0  0  0  0  0
  1 19  1  1  0  0  0
  1 13  1  0  0  0  0
  2  1  1  0  0  0  0
  2  3  1  0  0  0  0
  3  4  1  0  0  0  0
  4 12  2  0  0  0  0
  4  5  1  0  0  0  0
  5  6  2  0  0  0  0
  6  7  1  0  0  0  0
  7  8  1  0  0  0  0
  9  8  2  0  0  0  0
  9 17  1  0  0  0  0
 10  9  1  0  0  0  0
 11 10  1  0  0  0  0
 11  7  2  0  0  0  0
 12 11  1  0  0  0  0
 13 12  1  0  0  0  0
 14 10  1  0  0  0  0
 14 15  1  0  0  0  0
 15 24  1  1  0  0  0
 15 16  1  0  0  0  0
 16 17  1  0  0  0  0
 17 18  1  0  0  0  0
 20 21  1  0  0  0  0
 21 19  1  0  0  0  0
 22 21  1  0  0  0  0
 23 21  1  0  0  0  0
 25 27  1  0  0  0  0
 25 24  1  0  0  0  0
 26 25  1  0  0  0  0
 28 25  1  0  0  0  0
M  END
>  <minimizedAffinity>
-2.20160961

$$$$
