
 OpenBabel09092210413D

 28 31  0  0  1  0  0  0  0  0999 V2000
   -0.6340   -4.7510    0.2850 C   0  0  2  0  0  3  0  0  0  0  0  0
    0.1020   -5.1040    1.5710 C   0  0  0  0  0  2  0  0  0  0  0  0
    0.9910   -4.0460    1.9210 O   0  0  0  0  0  0  0  0  0  0  0  0
    1.9310   -3.7900    0.9480 C   0  0  0  0  0  0  0  0  0  0  0  0
    3.0840   -3.1590    1.4080 C   0  0  0  0  0  3  0  0  0  0  0  0
    4.1350   -2.8940    0.5330 C   0  0  0  0  0  3  0  0  0  0  0  0
    4.0160   -3.2890   -0.8050 C   0  0  0  0  0  0  0  0  0  0  0  0
    4.9600   -3.1960   -1.7950 N   0  0  0  0  0  0  0  0  0  0  0  0
    4.4290   -3.7830   -2.8250 C   0  0  0  0  0  0  0  0  0  0  0  0
    3.1180   -4.1290   -2.5920 N   0  0  0  0  0  0  0  0  0  0  0  0
    2.8310   -3.8830   -1.2660 C   0  0  0  0  0  0  0  0  0  0  0  0
    1.7260   -4.1240   -0.4140 C   0  0  0  0  0  0  0  0  0  0  0  0
    0.4230   -4.7520   -0.8400 C   0  0  0  0  0  2  0  0  0  0  0  0
    2.2910   -4.7420   -3.6190 C   0  0  0  0  0  2  0  0  0  0  0  0
    2.9150   -4.6180   -5.0360 C   0  0  2  0  0  3  0  0  0  0  0  0
    4.3980   -4.9830   -4.9160 C   0  0  0  0  0  2  0  0  0  0  0  0
    5.0200   -4.0520   -4.0060 N   0  0  0  0  0  0  0  0  0  0  0  0
    6.0360   -3.9430   -4.0330 H   0  0  0  0  0  0  0  0  0  0  0  0
   -1.3530   -3.3880    0.3510 C   0  0  0  0  0  2  0  0  0  0  0  0
   -1.4730   -1.5300    2.0550 C   0  0  0  0  0  1  0  0  0  0  0  0
   -1.7160   -2.9970    1.7760 N   0  0  0  0  0  4  0  0  0  0  0  0
   -3.1350   -3.3680    2.1330 C   0  0  0  0  0  1  0  0  0  0  0  0
   -1.1220   -3.5180    2.4330 H   0  0  0  0  0  0  0  0  0  0  0  0
    2.6680   -3.1990   -5.5940 C   0  0  0  0  0  2  0  0  0  0  0  0
    1.3850   -2.5490   -5.1150 N   0  0  0  0  0  4  0  0  0  0  0  0
    1.5510   -1.1610   -4.5630 C   0  0  0  0  0  1  0  0  0  0  0  0
    0.3290   -2.5690   -6.1990 C   0  0  0  0  0  1  0  0  0  0  0  0
    0.9950   -3.1470   -4.3730 H   0  0  0  0  0  0  0  0  0  0  0  0
  1 19  1  1  0  0  0
  1  2  1  0  0  0  0
  2  3  1  0  0  0  0
  4  5  1  0  0  0  0
  4  3  1  0  0  0  0
  6  5  2  0  0  0  0
  7  6  1  0  0  0  0
  8  7  1  0  0  0  0
  9 10  1  0  0  0  0
  9  8  2  0  0  0  0
 10 11  1  0  0  0  0
 11  7  2  0  0  0  0
 11 12  1  0  0  0  0
 12  4  2  0  0  0  0
 13 12  1  0  0  0  0
 13  1  1  0  0  0  0
 14 10  1  0  0  0  0
 15 24  1  1  0  0  0
 15 16  1  0  0  0  0
 15 14  1  0  0  0  0
 16 17  1  0  0  0  0
 17  9  1  0  0  0  0
 18 17  1  0  0  0  0
 19 21  1  0  0  0  0
 21 20  1  0  0  0  0
 21 22  1  0  0  0  0
 21 23  1  0  0  0  0
 24 25  1  0  0  0  0
 25 26  1  0  0  0  0
 25 28  1  0  0  0  0
 27 25  1  0  0  0  0
M  END
>  <minimizedAffinity>
-2.11552072

$$$$
