
 OpenBabel09092210413D

 28 31  0  0  1  0  0  0  0  0999 V2000
   -0.5480    3.4760   -3.4320 C   0  0  2  0  0  3  0  0  0  0  0  0
    0.2690    4.5120   -4.1930 C   0  0  0  0  0  2  0  0  0  0  0  0
    1.6580    4.2180   -4.0620 O   0  0  0  0  0  0  0  0  0  0  0  0
    2.0860    4.2160   -2.7530 C   0  0  0  0  0  0  0  0  0  0  0  0
    3.4510    4.4350   -2.5890 C   0  0  0  0  0  3  0  0  0  0  0  0
    4.0010    4.5110   -1.3110 C   0  0  0  0  0  3  0  0  0  0  0  0
    3.1540    4.3810   -0.2030 C   0  0  0  0  0  0  0  0  0  0  0  0
    3.4810    4.5070    1.1220 N   0  0  0  0  0  0  0  0  0  0  0  0
    2.3540    4.4080    1.7600 C   0  0  0  0  0  0  0  0  0  0  0  0
    1.3200    4.0780    0.9150 N   0  0  0  0  0  0  0  0  0  0  0  0
    1.7880    4.1150   -0.3820 C   0  0  0  0  0  0  0  0  0  0  0  0
    1.2060    3.9860   -1.6660 C   0  0  0  0  0  0  0  0  0  0  0  0
   -0.2500    3.6960   -1.9330 C   0  0  0  0  0  2  0  0  0  0  0  0
   -0.0300    3.8490    1.4050 C   0  0  0  0  0  2  0  0  0  0  0  0
   -0.0780    3.6610    2.9450 C   0  0  2  0  0  3  0  0  0  0  0  0
    0.7960    4.7560    3.5670 C   0  0  0  0  0  2  0  0  0  0  0  0
    2.1430    4.5890    3.0790 N   0  0  0  0  0  0  0  0  0  0  0  0
    2.9110    5.0170    3.6000 H   0  0  0  0  0  0  0  0  0  0  0  0
   -0.2220    2.0250   -3.8400 C   0  0  0  0  0  2  0  0  0  0  0  0
    1.3980    1.0110   -5.4910 C   0  0  0  0  0  1  0  0  0  0  0  0
    0.2030    1.9200   -5.2980 N   0  0  0  0  0  4  0  0  0  0  0  0
   -0.9300    1.4900   -6.1990 C   0  0  0  0  0  1  0  0  0  0  0  0
    0.4870    2.8470   -5.6370 H   0  0  0  0  0  0  0  0  0  0  0  0
    0.3670    2.2280    3.3120 C   0  0  0  0  0  2  0  0  0  0  0  0
   -0.6540    1.4340    4.1010 N   0  0  0  0  0  4  0  0  0  0  0  0
   -1.9670    2.1350    4.3160 C   0  0  0  0  0  1  0  0  0  0  0  0
   -0.8740    0.0690    3.4860 C   0  0  0  0  0  1  0  0  0  0  0  0
   -0.2420    1.2310    5.0230 H   0  0  0  0  0  0  0  0  0  0  0  0
  1 19  1  6  0  0  0
  1 13  1  0  0  0  0
  2  3  1  0  0  0  0
  2  1  1  0  0  0  0
  3  4  1  0  0  0  0
  4  5  2  0  0  0  0
  4 12  1  0  0  0  0
  5  6  1  0  0  0  0
  6  7  2  0  0  0  0
  7  8  1  0  0  0  0
  8  9  2  0  0  0  0
  9 17  1  0  0  0  0
 10 14  1  0  0  0  0
 10  9  1  0  0  0  0
 11  7  1  0  0  0  0
 11 10  1  0  0  0  0
 12 11  2  0  0  0  0
 13 12  1  0  0  0  0
 14 15  1  0  0  0  0
 15 24  1  6  0  0  0
 15 16  1  0  0  0  0
 17 16  1  0  0  0  0
 17 18  1  0  0  0  0
 20 21  1  0  0  0  0
 21 19  1  0  0  0  0
 22 21  1  0  0  0  0
 23 21  1  0  0  0  0
 24 25  1  0  0  0  0
 25 26  1  0  0  0  0
 25 28  1  0  0  0  0
 27 25  1  0  0  0  0
M  END
>  <minimizedAffinity>
-2.31309295

$$$$
