
 OpenBabel09092210413D

 28 31  0  0  1  0  0  0  0  0999 V2000
    0.3690   -2.6870    0.9390 C   0  0  2  0  0  3  0  0  0  0  0  0
    0.9410   -4.0820    1.1550 C   0  0  0  0  0  2  0  0  0  0  0  0
    2.3440   -4.0690    0.9020 O   0  0  0  0  0  0  0  0  0  0  0  0
    2.6560   -3.6740   -0.3800 C   0  0  0  0  0  0  0  0  0  0  0  0
    3.8990   -4.1060   -0.8340 C   0  0  0  0  0  3  0  0  0  0  0  0
    4.3110   -3.8190   -2.1330 C   0  0  0  0  0  3  0  0  0  0  0  0
    3.4450   -3.1090   -2.9740 C   0  0  0  0  0  0  0  0  0  0  0  0
    3.6250   -2.8010   -4.2970 N   0  0  0  0  0  0  0  0  0  0  0  0
    2.5170   -2.2310   -4.6660 C   0  0  0  0  0  0  0  0  0  0  0  0
    1.6740   -2.0230   -3.6000 N   0  0  0  0  0  0  0  0  0  0  0  0
    2.2140   -2.6390   -2.4900 C   0  0  0  0  0  0  0  0  0  0  0  0
    1.7860   -2.8720   -1.1610 C   0  0  0  0  0  0  0  0  0  0  0  0
    0.4820   -2.3950   -0.5720 C   0  0  0  0  0  2  0  0  0  0  0  0
    0.3990   -1.3420   -3.7500 C   0  0  0  0  0  2  0  0  0  0  0  0
    0.2830   -0.5900   -5.1040 C   0  0  2  0  0  3  0  0  0  0  0  0
    0.7900   -1.5370   -6.1970 C   0  0  0  0  0  2  0  0  0  0  0  0
    2.1660   -1.8590   -5.9130 N   0  0  0  0  0  0  0  0  0  0  0  0
    2.7530   -2.2180   -6.6690 H   0  0  0  0  0  0  0  0  0  0  0  0
    1.0940   -1.5990    1.7570 C   0  0  0  0  0  2  0  0  0  0  0  0
    2.8270   -1.4700    3.5880 C   0  0  0  0  0  1  0  0  0  0  0  0
    1.5330   -2.1040    3.1240 N   0  0  0  0  0  4  0  0  0  0  0  0
    0.4630   -1.9340    4.1730 C   0  0  0  0  0  1  0  0  0  0  0  0
    1.7100   -3.1150    3.0720 H   0  0  0  0  0  0  0  0  0  0  0  0
    1.0590    0.7440   -5.0290 C   0  0  0  0  0  2  0  0  0  0  0  0
    0.1850    1.9810   -5.0480 N   0  0  0  0  0  4  0  0  0  0  0  0
   -1.1890    1.7740   -5.6200 C   0  0  0  0  0  1  0  0  0  0  0  0
    0.1010    2.6070   -3.6730 C   0  0  0  0  0  1  0  0  0  0  0  0
    0.6680    2.6910   -5.6170 H   0  0  0  0  0  0  0  0  0  0  0  0
  1  2  1  0  0  0  0
  1 19  1  1  0  0  0
  3  2  1  0  0  0  0
  4  3  1  0  0  0  0
  5  4  1  0  0  0  0
  6  5  2  0  0  0  0
  7 11  2  0  0  0  0
  7  6  1  0  0  0  0
  8  7  1  0  0  0  0
  9  8  2  0  0  0  0
  9 10  1  0  0  0  0
 10 11  1  0  0  0  0
 11 12  1  0  0  0  0
 12 13  1  0  0  0  0
 12  4  2  0  0  0  0
 13  1  1  0  0  0  0
 14 10  1  0  0  0  0
 15 24  1  1  0  0  0
 15 14  1  0  0  0  0
 16 17  1  0  0  0  0
 16 15  1  0  0  0  0
 17  9  1  0  0  0  0
 18 17  1  0  0  0  0
 19 21  1  0  0  0  0
 21 20  1  0  0  0  0
 21 22  1  0  0  0  0
 23 21  1  0  0  0  0
 25 24  1  0  0  0  0
 25 27  1  0  0  0  0
 26 25  1  0  0  0  0
 28 25  1  0  0  0  0
M  END
>  <minimizedAffinity>
-2.23536777

$$$$
