
 OpenBabel09122222393D

 39 44  0  0  0  0  0  0  0  0999 V2000
   12.0350    5.2080    0.3340 C   0  0  0  0  0  0  0  0  0  0  0  0
   12.3270    4.1650    1.2220 C   0  0  0  0  0  3  0  0  0  0  0  0
   11.3600    3.2030    1.5370 C   0  0  0  0  0  3  0  0  0  0  0  0
   10.0880    3.2800    0.9690 C   0  0  0  0  0  0  0  0  0  0  0  0
    9.7930    4.3570    0.1230 C   0  0  0  0  0  0  0  0  0  0  0  0
    8.5760    4.4560   -0.4340 F   0  0  0  0  0  0  0  0  0  0  0  0
   10.7480    5.3170   -0.1920 C   0  0  0  0  0  3  0  0  0  0  0  0
   16.4310    8.6200   -1.8770 C   0  0  0  0  0  0  0  0  0  0  0  0
   16.1280    9.4510   -0.7870 C   0  0  0  0  0  3  0  0  0  0  0  0
   15.1200    9.1380    0.1340 C   0  0  0  0  0  3  0  0  0  0  0  0
   14.4090    7.9480   -0.0660 C   0  0  0  0  0  0  0  0  0  0  0  0
   14.6790    7.0990   -1.1370 C   0  0  0  0  0  0  0  0  0  0  0  0
   15.6940    7.4320   -2.0490 C   0  0  0  0  0  3  0  0  0  0  0  0
   13.8510    6.0030   -1.1150 N   0  0  0  0  0  0  0  0  0  0  0  0
   13.0670    6.1600   -0.0690 C   0  0  0  0  0  0  0  0  0  0  0  0
   13.3890    7.3190    0.6190 N   0  0  0  0  0  0  0  0  0  0  0  0
   12.7780    7.7590    1.8720 C   0  0  0  0  0  3  0  0  0  0  0  0
   13.7610    7.7630    3.0540 C   0  0  0  0  0  2  0  0  0  0  0  0
   13.0590    8.1600    4.3520 C   0  0  0  0  0  2  0  0  0  0  0  0
   12.3300    9.4940    4.2120 C   0  0  0  0  0  2  0  0  0  0  0  0
   11.3490    9.4840    3.0420 C   0  0  0  0  0  2  0  0  0  0  0  0
   12.0340    9.0940    1.7330 C   0  0  0  0  0  2  0  0  0  0  0  0
   17.5740    8.3610   -3.9490 O   0  0  0  0  0  0  0  0  0  0  0  0
   17.5330    8.9960   -2.8480 C   0  0  0  0  0  0  0  0  0  0  0  0
   18.3340    9.9160   -2.4930 O   0  0  0  0  0  1  0  0  0  0  0  0
    9.0810    2.3660    1.1260 O   0  0  0  0  0  0  0  0  0  0  0  0
    9.3820    1.0870    1.6930 C   0  0  0  0  0  2  0  0  0  0  0  0
    9.8070    0.0230    0.6900 C   0  0  0  0  0  0  0  0  0  0  0  0
   10.2020    0.3840   -0.6120 C   0  0  0  0  0  3  0  0  0  0  0  0
   10.6150   -0.5780   -1.5350 C   0  0  0  0  0  3  0  0  0  0  0  0
   10.6210   -1.9210   -1.1810 C   0  0  0  0  0  3  0  0  0  0  0  0
   10.1990   -2.3020    0.0920 C   0  0  0  0  0  3  0  0  0  0  0  0
    9.7780   -1.3490    1.0380 C   0  0  0  0  0  0  0  0  0  0  0  0
    9.2980   -1.8170    2.3450 C   0  0  0  0  0  0  0  0  0  0  0  0
    9.7550   -1.2140    3.5290 C   0  0  0  0  0  3  0  0  0  0  0  0
    9.3030   -1.6530    4.7750 C   0  0  0  0  0  3  0  0  0  0  0  0
    8.3860   -2.6990    4.8540 C   0  0  0  0  0  3  0  0  0  0  0  0
    7.9200   -3.3040    3.6880 C   0  0  0  0  0  3  0  0  0  0  0  0
    8.3720   -2.8650    2.4410 C   0  0  0  0  0  3  0  0  0  0  0  0
  1  2  1  0  0  0  0
  2  3  2  0  0  0  0
  4 26  1  0  0  0  0
  4  3  1  0  0  0  0
  5  4  2  0  0  0  0
  6  5  1  0  0  0  0
  7  5  1  0  0  0  0
  7  1  2  0  0  0  0
  8  9  1  0  0  0  0
  9 10  2  0  0  0  0
 11 10  1  0  0  0  0
 11 16  1  0  0  0  0
 12 14  1  0  0  0  0
 12 11  2  0  0  0  0
 13  8  2  0  0  0  0
 13 12  1  0  0  0  0
 14 15  2  0  0  0  0
 15  1  1  0  0  0  0
 15 16  1  0  0  0  0
 16 17  1  0  0  0  0
 17 18  1  0  0  0  0
 18 19  1  0  0  0  0
 20 19  1  0  0  0  0
 21 20  1  0  0  0  0
 22 17  1  0  0  0  0
 22 21  1  0  0  0  0
 23 24  2  0  0  0  0
 24 25  1  0  0  0  0
 24  8  1  0  0  0  0
 26 27  1  0  0  0  0
 28 33  1  0  0  0  0
 28 27  1  0  0  0  0
 29 28  2  0  0  0  0
 30 31  2  0  0  0  0
 30 29  1  0  0  0  0
 31 32  1  0  0  0  0
 32 33  2  0  0  0  0
 33 34  1  0  0  0  0
 34 39  2  0  0  0  0
 34 35  1  0  0  0  0
 35 36  2  0  0  0  0
 36 37  1  0  0  0  0
 38 37  2  0  0  0  0
 39 38  1  0  0  0  0
M  END
>  <minimizedAffinity>
-7.40533829

$$$$
