
 OpenBabel09122222393D

 39 44  0  0  0  0  0  0  0  0999 V2000
   14.4300    7.8290   -1.4950 C   0  0  0  0  0  0  0  0  0  0  0  0
   14.3240    9.2190   -1.3560 C   0  0  0  0  0  3  0  0  0  0  0  0
   15.2710   10.0690   -1.9380 C   0  0  0  0  0  3  0  0  0  0  0  0
   16.3380    9.5350   -2.6620 C   0  0  0  0  0  0  0  0  0  0  0  0
   16.4610    8.1430   -2.7500 C   0  0  0  0  0  0  0  0  0  0  0  0
   17.4800    7.6040   -3.4370 F   0  0  0  0  0  0  0  0  0  0  0  0
   15.5250    7.2920   -2.1720 C   0  0  0  0  0  3  0  0  0  0  0  0
   10.6830    3.6270    0.5420 C   0  0  0  0  0  0  0  0  0  0  0  0
    9.7890    4.7020    0.6700 C   0  0  0  0  0  3  0  0  0  0  0  0
   10.1410    6.0120    0.3200 C   0  0  0  0  0  3  0  0  0  0  0  0
   11.4350    6.2240   -0.1720 C   0  0  0  0  0  0  0  0  0  0  0  0
   12.3500    5.1830   -0.3100 C   0  0  0  0  0  0  0  0  0  0  0  0
   11.9770    3.8770    0.0470 C   0  0  0  0  0  3  0  0  0  0  0  0
   13.5440    5.6440   -0.8100 N   0  0  0  0  0  0  0  0  0  0  0  0
   13.3960    6.9420   -0.9700 C   0  0  0  0  0  0  0  0  0  0  0  0
   12.1140    7.3380   -0.6190 N   0  0  0  0  0  0  0  0  0  0  0  0
   11.5810    8.6920   -0.7510 C   0  0  0  0  0  3  0  0  0  0  0  0
   10.3650    8.7730   -1.6890 C   0  0  0  0  0  2  0  0  0  0  0  0
    9.8890   10.2170   -1.8490 C   0  0  0  0  0  2  0  0  0  0  0  0
    9.6110   10.8710   -0.4980 C   0  0  0  0  0  2  0  0  0  0  0  0
   10.8220   10.7960    0.4280 C   0  0  0  0  0  2  0  0  0  0  0  0
   11.3100    9.3590    0.6060 C   0  0  0  0  0  2  0  0  0  0  0  0
    9.8440    2.0550    2.1210 O   0  0  0  0  0  1  0  0  0  0  0  0
   10.2590    2.2240    0.9310 C   0  0  0  0  0  0  0  0  0  0  0  0
   10.3500    1.3210    0.0420 O   0  0  0  0  0  0  0  0  0  0  0  0
   17.2830   10.2510   -3.3460 O   0  0  0  0  0  0  0  0  0  0  0  0
   16.8660   11.1390   -4.3890 C   0  0  0  0  0  2  0  0  0  0  0  0
   17.0460   10.5990   -5.8020 C   0  0  0  0  0  0  0  0  0  0  0  0
   18.2260   10.8600   -6.5240 C   0  0  0  0  0  3  0  0  0  0  0  0
   18.4130   10.3530   -7.8100 C   0  0  0  0  0  3  0  0  0  0  0  0
   17.4160    9.5930   -8.4080 C   0  0  0  0  0  3  0  0  0  0  0  0
   16.2250    9.3530   -7.7230 C   0  0  0  0  0  3  0  0  0  0  0  0
   16.0150    9.8560   -6.4250 C   0  0  0  0  0  0  0  0  0  0  0  0
   14.7200    9.6100   -5.7760 C   0  0  0  0  0  0  0  0  0  0  0  0
   13.9040   10.6850   -5.3860 C   0  0  0  0  0  3  0  0  0  0  0  0
   12.6720   10.4600   -4.7690 C   0  0  0  0  0  3  0  0  0  0  0  0
   12.2380    9.1570   -4.5370 C   0  0  0  0  0  3  0  0  0  0  0  0
   13.0350    8.0800   -4.9220 C   0  0  0  0  0  3  0  0  0  0  0  0
   14.2670    8.3050   -5.5400 C   0  0  0  0  0  3  0  0  0  0  0  0
  1  2  1  0  0  0  0
  1 15  1  0  0  0  0
  3  2  2  0  0  0  0
  4  3  1  0  0  0  0
  5  4  2  0  0  0  0
  5  7  1  0  0  0  0
  6  5  1  0  0  0  0
  7  1  2  0  0  0  0
  8  9  1  0  0  0  0
  8 24  1  0  0  0  0
 10  9  2  0  0  0  0
 11 10  1  0  0  0  0
 12 11  2  0  0  0  0
 12 13  1  0  0  0  0
 13  8  2  0  0  0  0
 14 12  1  0  0  0  0
 15 14  2  0  0  0  0
 15 16  1  0  0  0  0
 16 11  1  0  0  0  0
 17 16  1  0  0  0  0
 17 22  1  0  0  0  0
 18 17  1  0  0  0  0
 19 18  1  0  0  0  0
 19 20  1  0  0  0  0
 20 21  1  0  0  0  0
 21 22  1  0  0  0  0
 24 23  1  0  0  0  0
 25 24  2  0  0  0  0
 26  4  1  0  0  0  0
 27 26  1  0  0  0  0
 28 27  1  0  0  0  0
 29 28  2  0  0  0  0
 30 29  1  0  0  0  0
 31 30  2  0  0  0  0
 31 32  1  0  0  0  0
 32 33  2  0  0  0  0
 33 28  1  0  0  0  0
 33 34  1  0  0  0  0
 34 39  2  0  0  0  0
 34 35  1  0  0  0  0
 35 36  2  0  0  0  0
 36 37  1  0  0  0  0
 38 37  2  0  0  0  0
 39 38  1  0  0  0  0
M  END
>  <minimizedAffinity>
-7.54017067

$$$$
