
 OpenBabel09122222393D

 39 44  0  0  0  0  0  0  0  0999 V2000
   10.4640    2.6650    0.1110 C   0  0  0  0  0  0  0  0  0  0  0  0
   11.3110    2.3650   -0.9640 C   0  0  0  0  0  3  0  0  0  0  0  0
   11.3700    1.0670   -1.4860 C   0  0  0  0  0  3  0  0  0  0  0  0
   10.5840    0.0550   -0.9320 C   0  0  0  0  0  0  0  0  0  0  0  0
    9.7800    0.3570    0.1730 C   0  0  0  0  0  0  0  0  0  0  0  0
    9.0170   -0.5980    0.7270 F   0  0  0  0  0  0  0  0  0  0  0  0
    9.7180    1.6440    0.6990 C   0  0  0  0  0  3  0  0  0  0  0  0
    9.5870    8.4370    1.4400 C   0  0  0  0  0  0  0  0  0  0  0  0
   10.2560    8.1080    2.6290 C   0  0  0  0  0  3  0  0  0  0  0  0
   10.7260    6.8140    2.8890 C   0  0  0  0  0  3  0  0  0  0  0  0
   10.5060    5.8380    1.9080 C   0  0  0  0  0  0  0  0  0  0  0  0
    9.8440    6.1260    0.7160 C   0  0  0  0  0  0  0  0  0  0  0  0
    9.3810    7.4300    0.4770 C   0  0  0  0  0  3  0  0  0  0  0  0
    9.7550    5.0080   -0.0770 N   0  0  0  0  0  0  0  0  0  0  0  0
   10.3290    4.0350    0.5980 C   0  0  0  0  0  0  0  0  0  0  0  0
   10.8280    4.5000    1.8050 N   0  0  0  0  0  0  0  0  0  0  0  0
   11.5970    3.7100    2.7640 C   0  0  0  0  0  3  0  0  0  0  0  0
   13.0550    4.1790    2.9010 C   0  0  0  0  0  2  0  0  0  0  0  0
   13.8350    3.2800    3.8600 C   0  0  0  0  0  2  0  0  0  0  0  0
   13.1420    3.1690    5.2150 C   0  0  0  0  0  2  0  0  0  0  0  0
   11.6980    2.6950    5.0770 C   0  0  0  0  0  2  0  0  0  0  0  0
   10.8990    3.5860    4.1260 C   0  0  0  0  0  2  0  0  0  0  0  0
    9.8230   10.7970    1.6450 O   0  0  0  0  0  1  0  0  0  0  0  0
    9.0970    9.8520    1.1990 C   0  0  0  0  0  0  0  0  0  0  0  0
    8.0010    9.9910    0.5730 O   0  0  0  0  0  0  0  0  0  0  0  0
   10.4840   -1.2290   -1.3950 O   0  0  0  0  0  0  0  0  0  0  0  0
   11.5610   -1.7800   -2.1610 C   0  0  0  0  0  2  0  0  0  0  0  0
   12.7050   -2.3580   -1.3380 C   0  0  0  0  0  0  0  0  0  0  0  0
   14.0400   -2.1920   -1.7520 C   0  0  0  0  0  3  0  0  0  0  0  0
   15.0990   -2.6960   -0.9950 C   0  0  0  0  0  3  0  0  0  0  0  0
   14.8420   -3.3940    0.1780 C   0  0  0  0  0  3  0  0  0  0  0  0
   13.5250   -3.6000    0.5860 C   0  0  0  0  0  3  0  0  0  0  0  0
   12.4420   -3.1010   -0.1620 C   0  0  0  0  0  0  0  0  0  0  0  0
   11.0770   -3.3930    0.2940 C   0  0  0  0  0  0  0  0  0  0  0  0
   10.6350   -2.9470    1.5510 C   0  0  0  0  0  3  0  0  0  0  0  0
    9.3390   -3.2200    1.9910 C   0  0  0  0  0  3  0  0  0  0  0  0
    8.4650   -3.9390    1.1780 C   0  0  0  0  0  3  0  0  0  0  0  0
    8.8870   -4.3830   -0.0740 C   0  0  0  0  0  3  0  0  0  0  0  0
   10.1840   -4.1110   -0.5150 C   0  0  0  0  0  3  0  0  0  0  0  0
  1 15  1  0  0  0  0
  1  7  1  0  0  0  0
  2  1  2  0  0  0  0
  3  2  1  0  0  0  0
  3  4  2  0  0  0  0
  4  5  1  0  0  0  0
  5  7  2  0  0  0  0
  5  6  1  0  0  0  0
  8  9  1  0  0  0  0
  9 10  2  0  0  0  0
 11 10  1  0  0  0  0
 12 11  2  0  0  0  0
 13 12  1  0  0  0  0
 13  8  2  0  0  0  0
 14 15  2  0  0  0  0
 14 12  1  0  0  0  0
 15 16  1  0  0  0  0
 16 11  1  0  0  0  0
 16 17  1  0  0  0  0
 17 18  1  0  0  0  0
 17 22  1  0  0  0  0
 18 19  1  0  0  0  0
 19 20  1  0  0  0  0
 21 20  1  0  0  0  0
 22 21  1  0  0  0  0
 24  8  1  0  0  0  0
 24 23  1  0  0  0  0
 25 24  2  0  0  0  0
 26  4  1  0  0  0  0
 27 26  1  0  0  0  0
 27 28  1  0  0  0  0
 28 33  1  0  0  0  0
 29 28  2  0  0  0  0
 29 30  1  0  0  0  0
 30 31  2  0  0  0  0
 31 32  1  0  0  0  0
 33 34  1  0  0  0  0
 33 32  2  0  0  0  0
 34 35  1  0  0  0  0
 35 36  2  0  0  0  0
 37 36  1  0  0  0  0
 38 37  2  0  0  0  0
 39 38  1  0  0  0  0
 39 34  2  0  0  0  0
M  END
>  <minimizedAffinity>
-9.03899288

$$$$
