
 OpenBabel09122222393D

 39 44  0  0  0  0  0  0  0  0999 V2000
    9.8480    3.2980    0.7720 C   0  0  0  0  0  0  0  0  0  0  0  0
    9.1760    2.5470    1.7450 C   0  0  0  0  0  3  0  0  0  0  0  0
    9.2250    1.1480    1.7270 C   0  0  0  0  0  3  0  0  0  0  0  0
    9.9430    0.4870    0.7290 C   0  0  0  0  0  0  0  0  0  0  0  0
   10.5670    1.2480   -0.2660 C   0  0  0  0  0  0  0  0  0  0  0  0
   11.2620    0.6370   -1.2390 F   0  0  0  0  0  0  0  0  0  0  0  0
   10.5220    2.6380   -0.2570 C   0  0  0  0  0  3  0  0  0  0  0  0
    9.5250    9.2670    0.4310 C   0  0  0  0  0  0  0  0  0  0  0  0
   10.4010    9.2250    1.5280 C   0  0  0  0  0  3  0  0  0  0  0  0
   10.8520    8.0180    2.0790 C   0  0  0  0  0  3  0  0  0  0  0  0
   10.3960    6.8310    1.4920 C   0  0  0  0  0  0  0  0  0  0  0  0
    9.5250    6.8320    0.4050 C   0  0  0  0  0  0  0  0  0  0  0  0
    9.0850    8.0530   -0.1310 C   0  0  0  0  0  3  0  0  0  0  0  0
    9.2270    5.5500    0.0140 N   0  0  0  0  0  0  0  0  0  0  0  0
    9.8770    4.7560    0.8390 C   0  0  0  0  0  0  0  0  0  0  0  0
   10.6270    5.4940    1.7420 N   0  0  0  0  0  0  0  0  0  0  0  0
   11.5340    4.9370    2.7440 C   0  0  0  0  0  3  0  0  0  0  0  0
   10.8050    4.4100    3.9910 C   0  0  0  0  0  2  0  0  0  0  0  0
   11.7980    3.9040    5.0360 C   0  0  0  0  0  2  0  0  0  0  0  0
   12.7510    2.8640    4.4510 C   0  0  0  0  0  2  0  0  0  0  0  0
   13.4790    3.3930    3.2180 C   0  0  0  0  0  2  0  0  0  0  0  0
   12.5020    3.8990    2.1580 C   0  0  0  0  0  2  0  0  0  0  0  0
    7.8760   10.9580    0.1360 O   0  0  0  0  0  1  0  0  0  0  0  0
    9.0650   10.5970   -0.1350 C   0  0  0  0  0  0  0  0  0  0  0  0
    9.8980   11.2500   -0.8370 O   0  0  0  0  0  0  0  0  0  0  0  0
   10.1390   -0.8650    0.6420 O   0  0  0  0  0  0  0  0  0  0  0  0
    9.7230   -1.7020    1.7270 C   0  0  0  0  0  2  0  0  0  0  0  0
    9.1370   -3.0450    1.3130 C   0  0  0  0  0  0  0  0  0  0  0  0
    7.9650   -3.5330    1.9210 C   0  0  0  0  0  3  0  0  0  0  0  0
    7.4050   -4.7510    1.5350 C   0  0  0  0  0  3  0  0  0  0  0  0
    8.0180   -5.5160    0.5510 C   0  0  0  0  0  3  0  0  0  0  0  0
    9.1990   -5.0670   -0.0380 C   0  0  0  0  0  3  0  0  0  0  0  0
    9.7820   -3.8420    0.3370 C   0  0  0  0  0  0  0  0  0  0  0  0
   11.0540   -3.4470   -0.2850 C   0  0  0  0  0  0  0  0  0  0  0  0
   11.0670   -2.8140   -1.5380 C   0  0  0  0  0  3  0  0  0  0  0  0
   12.2710   -2.4360   -2.1340 C   0  0  0  0  0  3  0  0  0  0  0  0
   13.4780   -2.6820   -1.4830 C   0  0  0  0  0  3  0  0  0  0  0  0
   13.4800   -3.3050   -0.2360 C   0  0  0  0  0  3  0  0  0  0  0  0
   12.2750   -3.6840    0.3610 C   0  0  0  0  0  3  0  0  0  0  0  0
  1 15  1  0  0  0  0
  1  2  1  0  0  0  0
  3  2  2  0  0  0  0
  4  3  1  0  0  0  0
  5  7  1  0  0  0  0
  5  4  2  0  0  0  0
  6  5  1  0  0  0  0
  7  1  2  0  0  0  0
  8  9  1  0  0  0  0
  9 10  2  0  0  0  0
 11 16  1  0  0  0  0
 11 10  1  0  0  0  0
 12 11  2  0  0  0  0
 13 12  1  0  0  0  0
 13  8  2  0  0  0  0
 14 12  1  0  0  0  0
 14 15  2  0  0  0  0
 15 16  1  0  0  0  0
 16 17  1  0  0  0  0
 17 18  1  0  0  0  0
 18 19  1  0  0  0  0
 20 19  1  0  0  0  0
 21 20  1  0  0  0  0
 22 17  1  0  0  0  0
 22 21  1  0  0  0  0
 24 23  1  0  0  0  0
 24  8  1  0  0  0  0
 25 24  2  0  0  0  0
 26  4  1  0  0  0  0
 26 27  1  0  0  0  0
 28 27  1  0  0  0  0
 28 29  1  0  0  0  0
 30 29  2  0  0  0  0
 31 30  1  0  0  0  0
 32 33  1  0  0  0  0
 32 31  2  0  0  0  0
 33 28  2  0  0  0  0
 34 33  1  0  0  0  0
 34 39  1  0  0  0  0
 35 34  2  0  0  0  0
 36 35  1  0  0  0  0
 36 37  2  0  0  0  0
 37 38  1  0  0  0  0
 38 39  2  0  0  0  0
M  END
>  <minimizedAffinity>
-7.9770484

$$$$
