
 OpenBabel09122217423D

 39 44  0  0  0  0  0  0  0  0999 V2000
   10.4640    2.6650    0.1110 C   0  0  0  0  0  0  0  0  0  0  0  0
   11.3110    2.3650   -0.9640 C   0  0  0  0  0  3  0  0  0  0  0  0
   11.3700    1.0670   -1.4860 C   0  0  0  0  0  3  0  0  0  0  0  0
   10.5840    0.0550   -0.9320 C   0  0  0  0  0  0  0  0  0  0  0  0
    9.7800    0.3570    0.1730 C   0  0  0  0  0  0  0  0  0  0  0  0
    9.0170   -0.5980    0.7270 F   0  0  0  0  0  0  0  0  0  0  0  0
    9.7180    1.6440    0.6990 C   0  0  0  0  0  3  0  0  0  0  0  0
    9.5870    8.4370    1.4400 C   0  0  0  0  0  0  0  0  0  0  0  0
   10.2560    8.1080    2.6290 C   0  0  0  0  0  3  0  0  0  0  0  0
   10.7260    6.8140    2.8890 C   0  0  0  0  0  3  0  0  0  0  0  0
   10.5060    5.8380    1.9080 C   0  0  0  0  0  0  0  0  0  0  0  0
    9.8440    6.1260    0.7160 C   0  0  0  0  0  0  0  0  0  0  0  0
    9.3810    7.4300    0.4770 C   0  0  0  0  0  3  0  0  0  0  0  0
    9.7550    5.0080   -0.0770 N   0  0  0  0  0  0  0  0  0  0  0  0
   10.3290    4.0350    0.5980 C   0  0  0  0  0  0  0  0  0  0  0  0
   10.8280    4.5000    1.8050 N   0  0  0  0  0  0  0  0  0  0  0  0
   11.5970    3.7100    2.7640 C   0  0  0  0  0  3  0  0  0  0  0  0
   13.0550    4.1790    2.9010 C   0  0  0  0  0  2  0  0  0  0  0  0
   13.8350    3.2800    3.8600 C   0  0  0  0  0  2  0  0  0  0  0  0
   13.1420    3.1690    5.2150 C   0  0  0  0  0  2  0  0  0  0  0  0
   11.6980    2.6950    5.0770 C   0  0  0  0  0  2  0  0  0  0  0  0
   10.8990    3.5860    4.1260 C   0  0  0  0  0  2  0  0  0  0  0  0
    9.8230   10.7970    1.6450 O   0  0  0  0  0  1  0  0  0  0  0  0
    9.0970    9.8520    1.1990 C   0  0  0  0  0  0  0  0  0  0  0  0
    8.0010    9.9910    0.5730 O   0  0  0  0  0  0  0  0  0  0  0  0
   10.4840   -1.2290   -1.3950 O   0  0  0  0  0  0  0  0  0  0  0  0
   11.5610   -1.7800   -2.1610 C   0  0  0  0  0  2  0  0  0  0  0  0
   12.7050   -2.3580   -1.3380 C   0  0  0  0  0  0  0  0  0  0  0  0
   14.0400   -2.1920   -1.7520 C   0  0  0  0  0  3  0  0  0  0  0  0
   15.0990   -2.6960   -0.9950 C   0  0  0  0  0  3  0  0  0  0  0  0
   14.8420   -3.3940    0.1780 C   0  0  0  0  0  3  0  0  0  0  0  0
   13.5250   -3.6000    0.5860 C   0  0  0  0  0  3  0  0  0  0  0  0
   12.4420   -3.1010   -0.1620 C   0  0  0  0  0  0  0  0  0  0  0  0
   11.0770   -3.3930    0.2940 C   0  0  0  0  0  0  0  0  0  0  0  0
   10.6350   -2.9470    1.5510 C   0  0  0  0  0  3  0  0  0  0  0  0
    9.3390   -3.2200    1.9910 C   0  0  0  0  0  3  0  0  0  0  0  0
    8.4650   -3.9390    1.1780 C   0  0  0  0  0  3  0  0  0  0  0  0
    8.8870   -4.3830   -0.0740 C   0  0  0  0  0  3  0  0  0  0  0  0
   10.1840   -4.1110   -0.5150 C   0  0  0  0  0  3  0  0  0  0  0  0
  1 15  1  0  0  0  0
  1  7  1  0  0  0  0
  2  1  2  0  0  0  0
  3  2  1  0  0  0  0
  3  4  2  0  0  0  0
  4  5  1  0  0  0  0
  5  7  2  0  0  0  0
  5  6  1  0  0  0  0
  8  9  1  0  0  0  0
  9 10  2  0  0  0  0
 11 10  1  0  0  0  0
 12 11  2  0  0  0  0
 13 12  1  0  0  0  0
 13  8  2  0  0  0  0
 14 15  2  0  0  0  0
 14 12  1  0  0  0  0
 15 16  1  0  0  0  0
 16 11  1  0  0  0  0
 16 17  1  0  0  0  0
 17 18  1  0  0  0  0
 17 22  1  0  0  0  0
 18 19  1  0  0  0  0
 19 20  1  0  0  0  0
 21 20  1  0  0  0  0
 22 21  1  0  0  0  0
 24  8  1  0  0  0  0
 24 23  1  0  0  0  0
 25 24  2  0  0  0  0
 26  4  1  0  0  0  0
 27 26  1  0  0  0  0
 27 28  1  0  0  0  0
 28 33  1  0  0  0  0
 29 28  2  0  0  0  0
 29 30  1  0  0  0  0
 30 31  2  0  0  0  0
 31 32  1  0  0  0  0
 33 34  1  0  0  0  0
 33 32  2  0  0  0  0
 34 35  1  0  0  0  0
 35 36  2  0  0  0  0
 37 36  1  0  0  0  0
 38 37  2  0  0  0  0
 39 38  1  0  0  0  0
 39 34  2  0  0  0  0
M  END
>  <minimizedAffinity>
-9.03899288

$$$$

 OpenBabel09122217423D

 39 44  0  0  0  0  0  0  0  0999 V2000
    9.9310    2.2880    1.6720 C   0  0  0  0  0  0  0  0  0  0  0  0
    9.6370    1.3330    0.6900 C   0  0  0  0  0  3  0  0  0  0  0  0
    9.3720    0.0040    1.0430 C   0  0  0  0  0  3  0  0  0  0  0  0
    9.4040   -0.3820    2.3830 C   0  0  0  0  0  0  0  0  0  0  0  0
    9.7490    0.5700    3.3490 C   0  0  0  0  0  0  0  0  0  0  0  0
    9.7900    0.2240    4.6460 F   0  0  0  0  0  0  0  0  0  0  0  0
   10.0150    1.8920    3.0070 C   0  0  0  0  0  3  0  0  0  0  0  0
   10.2030    7.9190   -0.3450 C   0  0  0  0  0  0  0  0  0  0  0  0
   11.1500    8.0790    0.6790 C   0  0  0  0  0  3  0  0  0  0  0  0
   11.5130    7.0280    1.5310 C   0  0  0  0  0  3  0  0  0  0  0  0
   10.8950    5.7880    1.3290 C   0  0  0  0  0  0  0  0  0  0  0  0
    9.9490    5.5920    0.3250 C   0  0  0  0  0  0  0  0  0  0  0  0
    9.5990    6.6580   -0.5180 C   0  0  0  0  0  3  0  0  0  0  0  0
    9.4910    4.2970    0.3300 N   0  0  0  0  0  0  0  0  0  0  0  0
   10.1160    3.6920    1.3190 C   0  0  0  0  0  0  0  0  0  0  0  0
   11.0040    4.5560    1.9400 N   0  0  0  0  0  0  0  0  0  0  0  0
   11.9210    4.1960    3.0200 C   0  0  0  0  0  3  0  0  0  0  0  0
   13.2310    3.5690    2.5150 C   0  0  0  0  0  2  0  0  0  0  0  0
   14.1230    3.1450    3.6810 C   0  0  0  0  0  2  0  0  0  0  0  0
   14.3790    4.3020    4.6430 C   0  0  0  0  0  2  0  0  0  0  0  0
   13.0770    4.9170    5.1490 C   0  0  0  0  0  2  0  0  0  0  0  0
   12.1720    5.3530    3.9970 C   0  0  0  0  0  2  0  0  0  0  0  0
    9.4620    8.8020   -2.4280 O   0  0  0  0  0  0  0  0  0  0  0  0
    9.8420    9.0830   -1.2470 C   0  0  0  0  0  0  0  0  0  0  0  0
    9.9460   10.2520   -0.7600 O   0  0  0  0  0  1  0  0  0  0  0  0
    9.0860   -1.6220    2.8700 O   0  0  0  0  0  0  0  0  0  0  0  0
    9.7920   -2.7660    2.3790 C   0  0  0  0  0  2  0  0  0  0  0  0
    8.9900   -3.6640    1.4470 C   0  0  0  0  0  0  0  0  0  0  0  0
    7.8610   -4.3600    1.9190 C   0  0  0  0  0  3  0  0  0  0  0  0
    7.1030   -5.1680    1.0700 C   0  0  0  0  0  3  0  0  0  0  0  0
    7.4720   -5.3130   -0.2610 C   0  0  0  0  0  3  0  0  0  0  0  0
    8.6080   -4.6610   -0.7390 C   0  0  0  0  0  3  0  0  0  0  0  0
    9.3870   -3.8420    0.0990 C   0  0  0  0  0  0  0  0  0  0  0  0
   10.5990   -3.2210   -0.4510 C   0  0  0  0  0  0  0  0  0  0  0  0
   11.8610   -3.7890   -0.2100 C   0  0  0  0  0  3  0  0  0  0  0  0
   13.0180   -3.2050   -0.7300 C   0  0  0  0  0  3  0  0  0  0  0  0
   12.9270   -2.0470   -1.5010 C   0  0  0  0  0  3  0  0  0  0  0  0
   11.6810   -1.4760   -1.7520 C   0  0  0  0  0  3  0  0  0  0  0  0
   10.5240   -2.0600   -1.2320 C   0  0  0  0  0  3  0  0  0  0  0  0
  1  7  1  0  0  0  0
  2  3  1  0  0  0  0
  2  1  2  0  0  0  0
  3  4  2  0  0  0  0
  4 26  1  0  0  0  0
  4  5  1  0  0  0  0
  5  6  1  0  0  0  0
  7  5  2  0  0  0  0
  8  9  1  0  0  0  0
  9 10  2  0  0  0  0
 11 10  1  0  0  0  0
 11 16  1  0  0  0  0
 12 14  1  0  0  0  0
 12 11  2  0  0  0  0
 13  8  2  0  0  0  0
 13 12  1  0  0  0  0
 14 15  2  0  0  0  0
 15  1  1  0  0  0  0
 15 16  1  0  0  0  0
 16 17  1  0  0  0  0
 17 22  1  0  0  0  0
 18 17  1  0  0  0  0
 18 19  1  0  0  0  0
 19 20  1  0  0  0  0
 20 21  1  0  0  0  0
 22 21  1  0  0  0  0
 23 24  2  0  0  0  0
 24 25  1  0  0  0  0
 24  8  1  0  0  0  0
 27 26  1  0  0  0  0
 28 29  1  0  0  0  0
 28 27  1  0  0  0  0
 30 29  2  0  0  0  0
 31 30  1  0  0  0  0
 32 31  2  0  0  0  0
 32 33  1  0  0  0  0
 33 28  2  0  0  0  0
 34 35  1  0  0  0  0
 34 33  1  0  0  0  0
 36 35  2  0  0  0  0
 37 36  1  0  0  0  0
 38 37  2  0  0  0  0
 38 39  1  0  0  0  0
 39 34  2  0  0  0  0
M  END
>  <minimizedAffinity>
-8.43685818

$$$$

 OpenBabel09122217423D

 39 44  0  0  0  0  0  0  0  0999 V2000
    9.8480    3.2980    0.7720 C   0  0  0  0  0  0  0  0  0  0  0  0
    9.1760    2.5470    1.7450 C   0  0  0  0  0  3  0  0  0  0  0  0
    9.2250    1.1480    1.7270 C   0  0  0  0  0  3  0  0  0  0  0  0
    9.9430    0.4870    0.7290 C   0  0  0  0  0  0  0  0  0  0  0  0
   10.5670    1.2480   -0.2660 C   0  0  0  0  0  0  0  0  0  0  0  0
   11.2620    0.6370   -1.2390 F   0  0  0  0  0  0  0  0  0  0  0  0
   10.5220    2.6380   -0.2570 C   0  0  0  0  0  3  0  0  0  0  0  0
    9.5250    9.2670    0.4310 C   0  0  0  0  0  0  0  0  0  0  0  0
   10.4010    9.2250    1.5280 C   0  0  0  0  0  3  0  0  0  0  0  0
   10.8520    8.0180    2.0790 C   0  0  0  0  0  3  0  0  0  0  0  0
   10.3960    6.8310    1.4920 C   0  0  0  0  0  0  0  0  0  0  0  0
    9.5250    6.8320    0.4050 C   0  0  0  0  0  0  0  0  0  0  0  0
    9.0850    8.0530   -0.1310 C   0  0  0  0  0  3  0  0  0  0  0  0
    9.2270    5.5500    0.0140 N   0  0  0  0  0  0  0  0  0  0  0  0
    9.8770    4.7560    0.8390 C   0  0  0  0  0  0  0  0  0  0  0  0
   10.6270    5.4940    1.7420 N   0  0  0  0  0  0  0  0  0  0  0  0
   11.5340    4.9370    2.7440 C   0  0  0  0  0  3  0  0  0  0  0  0
   10.8050    4.4100    3.9910 C   0  0  0  0  0  2  0  0  0  0  0  0
   11.7980    3.9040    5.0360 C   0  0  0  0  0  2  0  0  0  0  0  0
   12.7510    2.8640    4.4510 C   0  0  0  0  0  2  0  0  0  0  0  0
   13.4790    3.3930    3.2180 C   0  0  0  0  0  2  0  0  0  0  0  0
   12.5020    3.8990    2.1580 C   0  0  0  0  0  2  0  0  0  0  0  0
    7.8760   10.9580    0.1360 O   0  0  0  0  0  1  0  0  0  0  0  0
    9.0650   10.5970   -0.1350 C   0  0  0  0  0  0  0  0  0  0  0  0
    9.8980   11.2500   -0.8370 O   0  0  0  0  0  0  0  0  0  0  0  0
   10.1390   -0.8650    0.6420 O   0  0  0  0  0  0  0  0  0  0  0  0
    9.7230   -1.7020    1.7270 C   0  0  0  0  0  2  0  0  0  0  0  0
    9.1370   -3.0450    1.3130 C   0  0  0  0  0  0  0  0  0  0  0  0
    7.9650   -3.5330    1.9210 C   0  0  0  0  0  3  0  0  0  0  0  0
    7.4050   -4.7510    1.5350 C   0  0  0  0  0  3  0  0  0  0  0  0
    8.0180   -5.5160    0.5510 C   0  0  0  0  0  3  0  0  0  0  0  0
    9.1990   -5.0670   -0.0380 C   0  0  0  0  0  3  0  0  0  0  0  0
    9.7820   -3.8420    0.3370 C   0  0  0  0  0  0  0  0  0  0  0  0
   11.0540   -3.4470   -0.2850 C   0  0  0  0  0  0  0  0  0  0  0  0
   11.0670   -2.8140   -1.5380 C   0  0  0  0  0  3  0  0  0  0  0  0
   12.2710   -2.4360   -2.1340 C   0  0  0  0  0  3  0  0  0  0  0  0
   13.4780   -2.6820   -1.4830 C   0  0  0  0  0  3  0  0  0  0  0  0
   13.4800   -3.3050   -0.2360 C   0  0  0  0  0  3  0  0  0  0  0  0
   12.2750   -3.6840    0.3610 C   0  0  0  0  0  3  0  0  0  0  0  0
  1 15  1  0  0  0  0
  1  2  1  0  0  0  0
  3  2  2  0  0  0  0
  4  3  1  0  0  0  0
  5  7  1  0  0  0  0
  5  4  2  0  0  0  0
  6  5  1  0  0  0  0
  7  1  2  0  0  0  0
  8  9  1  0  0  0  0
  9 10  2  0  0  0  0
 11 16  1  0  0  0  0
 11 10  1  0  0  0  0
 12 11  2  0  0  0  0
 13 12  1  0  0  0  0
 13  8  2  0  0  0  0
 14 12  1  0  0  0  0
 14 15  2  0  0  0  0
 15 16  1  0  0  0  0
 16 17  1  0  0  0  0
 17 18  1  0  0  0  0
 18 19  1  0  0  0  0
 20 19  1  0  0  0  0
 21 20  1  0  0  0  0
 22 17  1  0  0  0  0
 22 21  1  0  0  0  0
 24 23  1  0  0  0  0
 24  8  1  0  0  0  0
 25 24  2  0  0  0  0
 26  4  1  0  0  0  0
 26 27  1  0  0  0  0
 28 27  1  0  0  0  0
 28 29  1  0  0  0  0
 30 29  2  0  0  0  0
 31 30  1  0  0  0  0
 32 33  1  0  0  0  0
 32 31  2  0  0  0  0
 33 28  2  0  0  0  0
 34 33  1  0  0  0  0
 34 39  1  0  0  0  0
 35 34  2  0  0  0  0
 36 35  1  0  0  0  0
 36 37  2  0  0  0  0
 37 38  1  0  0  0  0
 38 39  2  0  0  0  0
M  END
>  <minimizedAffinity>
-7.9770484

$$$$

 OpenBabel09122217423D

 39 44  0  0  0  0  0  0  0  0999 V2000
   12.1280    5.1900    0.3330 C   0  0  0  0  0  0  0  0  0  0  0  0
   12.6900    4.2060    1.1570 C   0  0  0  0  0  3  0  0  0  0  0  0
   11.9560    3.0690    1.5160 C   0  0  0  0  0  3  0  0  0  0  0  0
   10.6480    2.9090    1.0570 C   0  0  0  0  0  0  0  0  0  0  0  0
   10.0800    3.9230    0.2770 C   0  0  0  0  0  0  0  0  0  0  0  0
    8.8230    3.7950   -0.1750 F   0  0  0  0  0  0  0  0  0  0  0  0
   10.8020    5.0570   -0.0830 C   0  0  0  0  0  3  0  0  0  0  0  0
   15.8890    9.3570   -1.7480 C   0  0  0  0  0  0  0  0  0  0  0  0
   14.9300   10.2540   -1.2510 C   0  0  0  0  0  3  0  0  0  0  0  0
   13.7590    9.8190   -0.6180 C   0  0  0  0  0  3  0  0  0  0  0  0
   13.5670    8.4370   -0.4900 C   0  0  0  0  0  0  0  0  0  0  0  0
   14.4960    7.5170   -0.9720 C   0  0  0  0  0  0  0  0  0  0  0  0
   15.6630    7.9740   -1.6050 C   0  0  0  0  0  3  0  0  0  0  0  0
   14.0830    6.2300   -0.7260 N   0  0  0  0  0  0  0  0  0  0  0  0
   12.9190    6.3300   -0.1200 C   0  0  0  0  0  0  0  0  0  0  0  0
   12.5760    7.6600    0.0710 N   0  0  0  0  0  0  0  0  0  0  0  0
   11.3920    8.1350    0.7850 C   0  0  0  0  0  3  0  0  0  0  0  0
   11.7330    8.9860    2.0190 C   0  0  0  0  0  2  0  0  0  0  0  0
   10.4670    9.3990    2.7700 C   0  0  0  0  0  2  0  0  0  0  0  0
    9.4710   10.1010    1.8500 C   0  0  0  0  0  2  0  0  0  0  0  0
    9.1290    9.2490    0.6310 C   0  0  0  0  0  2  0  0  0  0  0  0
   10.3820    8.8310   -0.1370 C   0  0  0  0  0  2  0  0  0  0  0  0
   17.0190   10.8880   -3.1800 O   0  0  0  0  0  0  0  0  0  0  0  0
   17.1450    9.8710   -2.4250 C   0  0  0  0  0  0  0  0  0  0  0  0
   18.2290    9.2510   -2.1920 O   0  0  0  0  0  1  0  0  0  0  0  0
    9.8530    1.8140    1.2640 O   0  0  0  0  0  0  0  0  0  0  0  0
    9.8520    0.7590    0.2970 C   0  0  0  0  0  2  0  0  0  0  0  0
    9.5330   -0.6220    0.8540 C   0  0  0  0  0  0  0  0  0  0  0  0
    8.7220   -0.7640    1.9950 C   0  0  0  0  0  3  0  0  0  0  0  0
    8.4030   -2.0240    2.5030 C   0  0  0  0  0  3  0  0  0  0  0  0
    8.9060   -3.1650    1.8920 C   0  0  0  0  0  3  0  0  0  0  0  0
    9.7400   -3.0450    0.7810 C   0  0  0  0  0  3  0  0  0  0  0  0
   10.0760   -1.7840    0.2530 C   0  0  0  0  0  0  0  0  0  0  0  0
   10.9980   -1.7210   -0.8880 C   0  0  0  0  0  0  0  0  0  0  0  0
   12.1040   -2.5830   -0.9580 C   0  0  0  0  0  3  0  0  0  0  0  0
   12.9850   -2.5290   -2.0390 C   0  0  0  0  0  3  0  0  0  0  0  0
   12.7700   -1.6140   -3.0680 C   0  0  0  0  0  3  0  0  0  0  0  0
   11.6730   -0.7550   -3.0150 C   0  0  0  0  0  3  0  0  0  0  0  0
   10.7920   -0.8090   -1.9330 C   0  0  0  0  0  3  0  0  0  0  0  0
  1  2  1  0  0  0  0
  2  3  2  0  0  0  0
  4 26  1  0  0  0  0
  4  3  1  0  0  0  0
  5  4  2  0  0  0  0
  6  5  1  0  0  0  0
  7  5  1  0  0  0  0
  7  1  2  0  0  0  0
  8 13  2  0  0  0  0
  8  9  1  0  0  0  0
  9 10  2  0  0  0  0
 10 11  1  0  0  0  0
 11 16  1  0  0  0  0
 12 14  1  0  0  0  0
 12 11  2  0  0  0  0
 13 12  1  0  0  0  0
 14 15  2  0  0  0  0
 15 16  1  0  0  0  0
 15  1  1  0  0  0  0
 16 17  1  0  0  0  0
 17 18  1  0  0  0  0
 18 19  1  0  0  0  0
 20 19  1  0  0  0  0
 21 20  1  0  0  0  0
 22 21  1  0  0  0  0
 22 17  1  0  0  0  0
 23 24  2  0  0  0  0
 24 25  1  0  0  0  0
 24  8  1  0  0  0  0
 27 28  1  0  0  0  0
 27 26  1  0  0  0  0
 28 29  1  0  0  0  0
 29 30  2  0  0  0  0
 31 30  1  0  0  0  0
 32 31  2  0  0  0  0
 33 32  1  0  0  0  0
 33 28  2  0  0  0  0
 34 33  1  0  0  0  0
 35 34  1  0  0  0  0
 36 35  2  0  0  0  0
 37 38  2  0  0  0  0
 37 36  1  0  0  0  0
 38 39  1  0  0  0  0
 39 34  2  0  0  0  0
M  END
>  <minimizedAffinity>
-7.61283827

$$$$

 OpenBabel09122217423D

 39 44  0  0  0  0  0  0  0  0999 V2000
   14.4300    7.8290   -1.4950 C   0  0  0  0  0  0  0  0  0  0  0  0
   14.3240    9.2190   -1.3560 C   0  0  0  0  0  3  0  0  0  0  0  0
   15.2710   10.0690   -1.9380 C   0  0  0  0  0  3  0  0  0  0  0  0
   16.3380    9.5350   -2.6620 C   0  0  0  0  0  0  0  0  0  0  0  0
   16.4610    8.1430   -2.7500 C   0  0  0  0  0  0  0  0  0  0  0  0
   17.4800    7.6040   -3.4370 F   0  0  0  0  0  0  0  0  0  0  0  0
   15.5250    7.2920   -2.1720 C   0  0  0  0  0  3  0  0  0  0  0  0
   10.6830    3.6270    0.5420 C   0  0  0  0  0  0  0  0  0  0  0  0
    9.7890    4.7020    0.6700 C   0  0  0  0  0  3  0  0  0  0  0  0
   10.1410    6.0120    0.3200 C   0  0  0  0  0  3  0  0  0  0  0  0
   11.4350    6.2240   -0.1720 C   0  0  0  0  0  0  0  0  0  0  0  0
   12.3500    5.1830   -0.3100 C   0  0  0  0  0  0  0  0  0  0  0  0
   11.9770    3.8770    0.0470 C   0  0  0  0  0  3  0  0  0  0  0  0
   13.5440    5.6440   -0.8100 N   0  0  0  0  0  0  0  0  0  0  0  0
   13.3960    6.9420   -0.9700 C   0  0  0  0  0  0  0  0  0  0  0  0
   12.1140    7.3380   -0.6190 N   0  0  0  0  0  0  0  0  0  0  0  0
   11.5810    8.6920   -0.7510 C   0  0  0  0  0  3  0  0  0  0  0  0
   10.3650    8.7730   -1.6890 C   0  0  0  0  0  2  0  0  0  0  0  0
    9.8890   10.2170   -1.8490 C   0  0  0  0  0  2  0  0  0  0  0  0
    9.6110   10.8710   -0.4980 C   0  0  0  0  0  2  0  0  0  0  0  0
   10.8220   10.7960    0.4280 C   0  0  0  0  0  2  0  0  0  0  0  0
   11.3100    9.3590    0.6060 C   0  0  0  0  0  2  0  0  0  0  0  0
    9.8440    2.0550    2.1210 O   0  0  0  0  0  1  0  0  0  0  0  0
   10.2590    2.2240    0.9310 C   0  0  0  0  0  0  0  0  0  0  0  0
   10.3500    1.3210    0.0420 O   0  0  0  0  0  0  0  0  0  0  0  0
   17.2830   10.2510   -3.3460 O   0  0  0  0  0  0  0  0  0  0  0  0
   16.8660   11.1390   -4.3890 C   0  0  0  0  0  2  0  0  0  0  0  0
   17.0460   10.5990   -5.8020 C   0  0  0  0  0  0  0  0  0  0  0  0
   18.2260   10.8600   -6.5240 C   0  0  0  0  0  3  0  0  0  0  0  0
   18.4130   10.3530   -7.8100 C   0  0  0  0  0  3  0  0  0  0  0  0
   17.4160    9.5930   -8.4080 C   0  0  0  0  0  3  0  0  0  0  0  0
   16.2250    9.3530   -7.7230 C   0  0  0  0  0  3  0  0  0  0  0  0
   16.0150    9.8560   -6.4250 C   0  0  0  0  0  0  0  0  0  0  0  0
   14.7200    9.6100   -5.7760 C   0  0  0  0  0  0  0  0  0  0  0  0
   13.9040   10.6850   -5.3860 C   0  0  0  0  0  3  0  0  0  0  0  0
   12.6720   10.4600   -4.7690 C   0  0  0  0  0  3  0  0  0  0  0  0
   12.2380    9.1570   -4.5370 C   0  0  0  0  0  3  0  0  0  0  0  0
   13.0350    8.0800   -4.9220 C   0  0  0  0  0  3  0  0  0  0  0  0
   14.2670    8.3050   -5.5400 C   0  0  0  0  0  3  0  0  0  0  0  0
  1  2  1  0  0  0  0
  1 15  1  0  0  0  0
  3  2  2  0  0  0  0
  4  3  1  0  0  0  0
  5  4  2  0  0  0  0
  5  7  1  0  0  0  0
  6  5  1  0  0  0  0
  7  1  2  0  0  0  0
  8  9  1  0  0  0  0
  8 24  1  0  0  0  0
 10  9  2  0  0  0  0
 11 10  1  0  0  0  0
 12 11  2  0  0  0  0
 12 13  1  0  0  0  0
 13  8  2  0  0  0  0
 14 12  1  0  0  0  0
 15 14  2  0  0  0  0
 15 16  1  0  0  0  0
 16 11  1  0  0  0  0
 17 16  1  0  0  0  0
 17 22  1  0  0  0  0
 18 17  1  0  0  0  0
 19 18  1  0  0  0  0
 19 20  1  0  0  0  0
 20 21  1  0  0  0  0
 21 22  1  0  0  0  0
 24 23  1  0  0  0  0
 25 24  2  0  0  0  0
 26  4  1  0  0  0  0
 27 26  1  0  0  0  0
 28 27  1  0  0  0  0
 29 28  2  0  0  0  0
 30 29  1  0  0  0  0
 31 30  2  0  0  0  0
 31 32  1  0  0  0  0
 32 33  2  0  0  0  0
 33 28  1  0  0  0  0
 33 34  1  0  0  0  0
 34 39  2  0  0  0  0
 34 35  1  0  0  0  0
 35 36  2  0  0  0  0
 36 37  1  0  0  0  0
 38 37  2  0  0  0  0
 39 38  1  0  0  0  0
M  END
>  <minimizedAffinity>
-7.54017067

$$$$

 OpenBabel09122217423D

 39 44  0  0  0  0  0  0  0  0999 V2000
   11.7500    3.6710    0.8340 C   0  0  0  0  0  0  0  0  0  0  0  0
   12.2330    3.1980   -0.3930 C   0  0  0  0  0  3  0  0  0  0  0  0
   11.6840    2.0520   -0.9820 C   0  0  0  0  0  3  0  0  0  0  0  0
   10.6510    1.3650   -0.3450 C   0  0  0  0  0  0  0  0  0  0  0  0
   10.2130    1.8190    0.9050 C   0  0  0  0  0  0  0  0  0  0  0  0
    9.2220    1.1750    1.5410 F   0  0  0  0  0  0  0  0  0  0  0  0
   10.7540    2.9550    1.4980 C   0  0  0  0  0  3  0  0  0  0  0  0
   14.1280    8.3430    3.7260 C   0  0  0  0  0  0  0  0  0  0  0  0
   13.4700    9.0950    2.7400 C   0  0  0  0  0  3  0  0  0  0  0  0
   12.7060    8.4960    1.7290 C   0  0  0  0  0  3  0  0  0  0  0  0
   12.6140    7.0980    1.7310 C   0  0  0  0  0  0  0  0  0  0  0  0
   13.2550    6.3190    2.6920 C   0  0  0  0  0  0  0  0  0  0  0  0
   14.0160    6.9390    3.6960 C   0  0  0  0  0  3  0  0  0  0  0  0
   13.0130    4.9830    2.4810 N   0  0  0  0  0  0  0  0  0  0  0  0
   12.2540    4.9150    1.4070 C   0  0  0  0  0  0  0  0  0  0  0  0
   11.9610    6.1840    0.9310 N   0  0  0  0  0  0  0  0  0  0  0  0
   11.0770    6.4830   -0.1940 C   0  0  0  0  0  3  0  0  0  0  0  0
    9.5950    6.5650    0.2080 C   0  0  0  0  0  2  0  0  0  0  0  0
    8.7070    6.8080   -1.0110 C   0  0  0  0  0  2  0  0  0  0  0  0
    9.1530    8.0390   -1.7960 C   0  0  0  0  0  2  0  0  0  0  0  0
   10.6220    7.9510   -2.2010 C   0  0  0  0  0  2  0  0  0  0  0  0
   11.5280    7.7130   -0.9940 C   0  0  0  0  0  2  0  0  0  0  0  0
   14.5170   10.1600    5.2150 O   0  0  0  0  0  1  0  0  0  0  0  0
   14.9420    9.0330    4.8040 C   0  0  0  0  0  0  0  0  0  0  0  0
   15.9870    8.4390    5.2150 O   0  0  0  0  0  0  0  0  0  0  0  0
    9.9740    0.2860   -0.8460 O   0  0  0  0  0  0  0  0  0  0  0  0
   10.4740   -0.3690   -2.0160 C   0  0  0  0  0  2  0  0  0  0  0  0
   11.7790   -1.1310   -1.8180 C   0  0  0  0  0  0  0  0  0  0  0  0
   12.9400   -0.7560   -2.5200 C   0  0  0  0  0  3  0  0  0  0  0  0
   14.1470   -1.4300   -2.3300 C   0  0  0  0  0  3  0  0  0  0  0  0
   14.2110   -2.5050   -1.4530 C   0  0  0  0  0  3  0  0  0  0  0  0
   13.0630   -2.9140   -0.7750 C   0  0  0  0  0  3  0  0  0  0  0  0
   11.8350   -2.2490   -0.9510 C   0  0  0  0  0  0  0  0  0  0  0  0
   10.6510   -2.7570   -0.2470 C   0  0  0  0  0  0  0  0  0  0  0  0
    9.8930   -3.8060   -0.7940 C   0  0  0  0  0  3  0  0  0  0  0  0
    8.7660   -4.2950   -0.1300 C   0  0  0  0  0  3  0  0  0  0  0  0
    8.3850   -3.7450    1.0920 C   0  0  0  0  0  3  0  0  0  0  0  0
    9.1300   -2.7080    1.6500 C   0  0  0  0  0  3  0  0  0  0  0  0
   10.2570   -2.2180    0.9860 C   0  0  0  0  0  3  0  0  0  0  0  0
  1 15  1  0  0  0  0
  1  7  1  0  0  0  0
  2  1  2  0  0  0  0
  3  2  1  0  0  0  0
  3  4  2  0  0  0  0
  4  5  1  0  0  0  0
  5  7  2  0  0  0  0
  5  6  1  0  0  0  0
  8 24  1  0  0  0  0
  9  8  2  0  0  0  0
 10 11  2  0  0  0  0
 10  9  1  0  0  0  0
 11 12  1  0  0  0  0
 12 13  2  0  0  0  0
 13  8  1  0  0  0  0
 14 12  1  0  0  0  0
 15 14  2  0  0  0  0
 16 15  1  0  0  0  0
 16 11  1  0  0  0  0
 17 18  1  0  0  0  0
 17 16  1  0  0  0  0
 19 18  1  0  0  0  0
 20 19  1  0  0  0  0
 21 20  1  0  0  0  0
 21 22  1  0  0  0  0
 22 17  1  0  0  0  0
 24 25  2  0  0  0  0
 24 23  1  0  0  0  0
 26  4  1  0  0  0  0
 27 28  1  0  0  0  0
 27 26  1  0  0  0  0
 28 33  1  0  0  0  0
 29 30  1  0  0  0  0
 29 28  2  0  0  0  0
 30 31  2  0  0  0  0
 31 32  1  0  0  0  0
 33 32  2  0  0  0  0
 33 34  1  0  0  0  0
 34 39  1  0  0  0  0
 35 34  2  0  0  0  0
 35 36  1  0  0  0  0
 36 37  2  0  0  0  0
 37 38  1  0  0  0  0
 39 38  2  0  0  0  0
M  END
>  <minimizedAffinity>
-7.46460056

$$$$

 OpenBabel09122217423D

 39 44  0  0  0  0  0  0  0  0999 V2000
   12.0350    5.2080    0.3340 C   0  0  0  0  0  0  0  0  0  0  0  0
   12.3270    4.1650    1.2220 C   0  0  0  0  0  3  0  0  0  0  0  0
   11.3600    3.2030    1.5370 C   0  0  0  0  0  3  0  0  0  0  0  0
   10.0880    3.2800    0.9690 C   0  0  0  0  0  0  0  0  0  0  0  0
    9.7930    4.3570    0.1230 C   0  0  0  0  0  0  0  0  0  0  0  0
    8.5760    4.4560   -0.4340 F   0  0  0  0  0  0  0  0  0  0  0  0
   10.7480    5.3170   -0.1920 C   0  0  0  0  0  3  0  0  0  0  0  0
   16.4310    8.6200   -1.8770 C   0  0  0  0  0  0  0  0  0  0  0  0
   16.1280    9.4510   -0.7870 C   0  0  0  0  0  3  0  0  0  0  0  0
   15.1200    9.1380    0.1340 C   0  0  0  0  0  3  0  0  0  0  0  0
   14.4090    7.9480   -0.0660 C   0  0  0  0  0  0  0  0  0  0  0  0
   14.6790    7.0990   -1.1370 C   0  0  0  0  0  0  0  0  0  0  0  0
   15.6940    7.4320   -2.0490 C   0  0  0  0  0  3  0  0  0  0  0  0
   13.8510    6.0030   -1.1150 N   0  0  0  0  0  0  0  0  0  0  0  0
   13.0670    6.1600   -0.0690 C   0  0  0  0  0  0  0  0  0  0  0  0
   13.3890    7.3190    0.6190 N   0  0  0  0  0  0  0  0  0  0  0  0
   12.7780    7.7590    1.8720 C   0  0  0  0  0  3  0  0  0  0  0  0
   13.7610    7.7630    3.0540 C   0  0  0  0  0  2  0  0  0  0  0  0
   13.0590    8.1600    4.3520 C   0  0  0  0  0  2  0  0  0  0  0  0
   12.3300    9.4940    4.2120 C   0  0  0  0  0  2  0  0  0  0  0  0
   11.3490    9.4840    3.0420 C   0  0  0  0  0  2  0  0  0  0  0  0
   12.0340    9.0940    1.7330 C   0  0  0  0  0  2  0  0  0  0  0  0
   17.5740    8.3610   -3.9490 O   0  0  0  0  0  0  0  0  0  0  0  0
   17.5330    8.9960   -2.8480 C   0  0  0  0  0  0  0  0  0  0  0  0
   18.3340    9.9160   -2.4930 O   0  0  0  0  0  1  0  0  0  0  0  0
    9.0810    2.3660    1.1260 O   0  0  0  0  0  0  0  0  0  0  0  0
    9.3820    1.0870    1.6930 C   0  0  0  0  0  2  0  0  0  0  0  0
    9.8070    0.0230    0.6900 C   0  0  0  0  0  0  0  0  0  0  0  0
   10.2020    0.3840   -0.6120 C   0  0  0  0  0  3  0  0  0  0  0  0
   10.6150   -0.5780   -1.5350 C   0  0  0  0  0  3  0  0  0  0  0  0
   10.6210   -1.9210   -1.1810 C   0  0  0  0  0  3  0  0  0  0  0  0
   10.1990   -2.3020    0.0920 C   0  0  0  0  0  3  0  0  0  0  0  0
    9.7780   -1.3490    1.0380 C   0  0  0  0  0  0  0  0  0  0  0  0
    9.2980   -1.8170    2.3450 C   0  0  0  0  0  0  0  0  0  0  0  0
    9.7550   -1.2140    3.5290 C   0  0  0  0  0  3  0  0  0  0  0  0
    9.3030   -1.6530    4.7750 C   0  0  0  0  0  3  0  0  0  0  0  0
    8.3860   -2.6990    4.8540 C   0  0  0  0  0  3  0  0  0  0  0  0
    7.9200   -3.3040    3.6880 C   0  0  0  0  0  3  0  0  0  0  0  0
    8.3720   -2.8650    2.4410 C   0  0  0  0  0  3  0  0  0  0  0  0
  1  2  1  0  0  0  0
  2  3  2  0  0  0  0
  4 26  1  0  0  0  0
  4  3  1  0  0  0  0
  5  4  2  0  0  0  0
  6  5  1  0  0  0  0
  7  5  1  0  0  0  0
  7  1  2  0  0  0  0
  8  9  1  0  0  0  0
  9 10  2  0  0  0  0
 11 10  1  0  0  0  0
 11 16  1  0  0  0  0
 12 14  1  0  0  0  0
 12 11  2  0  0  0  0
 13  8  2  0  0  0  0
 13 12  1  0  0  0  0
 14 15  2  0  0  0  0
 15  1  1  0  0  0  0
 15 16  1  0  0  0  0
 16 17  1  0  0  0  0
 17 18  1  0  0  0  0
 18 19  1  0  0  0  0
 20 19  1  0  0  0  0
 21 20  1  0  0  0  0
 22 17  1  0  0  0  0
 22 21  1  0  0  0  0
 23 24  2  0  0  0  0
 24 25  1  0  0  0  0
 24  8  1  0  0  0  0
 26 27  1  0  0  0  0
 28 33  1  0  0  0  0
 28 27  1  0  0  0  0
 29 28  2  0  0  0  0
 30 31  2  0  0  0  0
 30 29  1  0  0  0  0
 31 32  1  0  0  0  0
 32 33  2  0  0  0  0
 33 34  1  0  0  0  0
 34 39  2  0  0  0  0
 34 35  1  0  0  0  0
 35 36  2  0  0  0  0
 36 37  1  0  0  0  0
 38 37  2  0  0  0  0
 39 38  1  0  0  0  0
M  END
>  <minimizedAffinity>
-7.40533829

$$$$

 OpenBabel09122217423D

 39 44  0  0  0  0  0  0  0  0999 V2000
   11.2490    3.1750    0.3970 C   0  0  0  0  0  0  0  0  0  0  0  0
   10.9550    2.2360   -0.6000 C   0  0  0  0  0  3  0  0  0  0  0  0
   10.2400    1.0710   -0.2960 C   0  0  0  0  0  3  0  0  0  0  0  0
    9.8170    0.8340    1.0130 C   0  0  0  0  0  0  0  0  0  0  0  0
   10.1620    1.7550    2.0090 C   0  0  0  0  0  0  0  0  0  0  0  0
    9.7700    1.5490    3.2760 F   0  0  0  0  0  0  0  0  0  0  0  0
   10.8740    2.9130    1.7150 C   0  0  0  0  0  3  0  0  0  0  0  0
   14.0420    8.0570   -1.6560 C   0  0  0  0  0  0  0  0  0  0  0  0
   13.9400    8.4900   -0.3240 C   0  0  0  0  0  3  0  0  0  0  0  0
   13.3390    7.7080    0.6720 C   0  0  0  0  0  3  0  0  0  0  0  0
   12.8340    6.4570    0.2950 C   0  0  0  0  0  0  0  0  0  0  0  0
   12.9150    5.9950   -1.0170 C   0  0  0  0  0  0  0  0  0  0  0  0
   13.5210    6.7950   -2.0000 C   0  0  0  0  0  3  0  0  0  0  0  0
   12.3520    4.7480   -1.1330 N   0  0  0  0  0  0  0  0  0  0  0  0
   11.9120    4.4340    0.0680 C   0  0  0  0  0  0  0  0  0  0  0  0
   12.2090    5.4360    0.9790 N   0  0  0  0  0  0  0  0  0  0  0  0
   11.9420    5.3820    2.4140 C   0  0  0  0  0  3  0  0  0  0  0  0
   13.2200    5.3060    3.2640 C   0  0  0  0  0  2  0  0  0  0  0  0
   12.8870    5.1800    4.7500 C   0  0  0  0  0  2  0  0  0  0  0  0
   11.9590    6.2990    5.2160 C   0  0  0  0  0  2  0  0  0  0  0  0
   10.6870    6.3660    4.3750 C   0  0  0  0  0  2  0  0  0  0  0  0
   10.9990    6.4980    2.8860 C   0  0  0  0  0  2  0  0  0  0  0  0
   13.9410    9.6850   -3.3900 O   0  0  0  0  0  0  0  0  0  0  0  0
   14.7030    8.9350   -2.7010 C   0  0  0  0  0  0  0  0  0  0  0  0
   15.9660    8.8580   -2.8120 O   0  0  0  0  0  1  0  0  0  0  0  0
    9.0450   -0.2180    1.4290 O   0  0  0  0  0  0  0  0  0  0  0  0
    9.6820   -1.3790    1.9730 C   0  0  0  0  0  2  0  0  0  0  0  0
    9.0700   -2.7060    1.5440 C   0  0  0  0  0  0  0  0  0  0  0  0
    7.9960   -3.2650    2.2630 C   0  0  0  0  0  3  0  0  0  0  0  0
    7.4120   -4.4690    1.8680 C   0  0  0  0  0  3  0  0  0  0  0  0
    7.9020   -5.1480    0.7600 C   0  0  0  0  0  3  0  0  0  0  0  0
    8.9880   -4.6290    0.0560 C   0  0  0  0  0  3  0  0  0  0  0  0
    9.5940   -3.4170    0.4370 C   0  0  0  0  0  0  0  0  0  0  0  0
   10.7650   -2.9470   -0.3150 C   0  0  0  0  0  0  0  0  0  0  0  0
   12.0500   -3.4160    0.0030 C   0  0  0  0  0  3  0  0  0  0  0  0
   13.1680   -2.9750   -0.7070 C   0  0  0  0  0  3  0  0  0  0  0  0
   13.0140   -2.0610   -1.7480 C   0  0  0  0  0  3  0  0  0  0  0  0
   11.7450   -1.5900   -2.0780 C   0  0  0  0  0  3  0  0  0  0  0  0
   10.6260   -2.0320   -1.3670 C   0  0  0  0  0  3  0  0  0  0  0  0
  1  7  1  0  0  0  0
  2  3  1  0  0  0  0
  2  1  2  0  0  0  0
  3  4  2  0  0  0  0
  4 26  1  0  0  0  0
  4  5  1  0  0  0  0
  5  6  1  0  0  0  0
  7  5  2  0  0  0  0
  8  9  1  0  0  0  0
  9 10  2  0  0  0  0
 11 10  1  0  0  0  0
 11 16  1  0  0  0  0
 12 11  2  0  0  0  0
 13  8  2  0  0  0  0
 13 12  1  0  0  0  0
 14 12  1  0  0  0  0
 14 15  2  0  0  0  0
 15  1  1  0  0  0  0
 15 16  1  0  0  0  0
 16 17  1  0  0  0  0
 17 22  1  0  0  0  0
 17 18  1  0  0  0  0
 18 19  1  0  0  0  0
 19 20  1  0  0  0  0
 21 20  1  0  0  0  0
 22 21  1  0  0  0  0
 23 24  2  0  0  0  0
 24  8  1  0  0  0  0
 25 24  1  0  0  0  0
 26 27  1  0  0  0  0
 28 27  1  0  0  0  0
 28 29  1  0  0  0  0
 30 29  2  0  0  0  0
 31 30  1  0  0  0  0
 32 33  1  0  0  0  0
 32 31  2  0  0  0  0
 33 28  2  0  0  0  0
 34 35  1  0  0  0  0
 34 33  1  0  0  0  0
 36 35  2  0  0  0  0
 37 36  1  0  0  0  0
 38 37  2  0  0  0  0
 38 39  1  0  0  0  0
 39 34  2  0  0  0  0
M  END
>  <minimizedAffinity>
-7.39370012

$$$$

 OpenBabel09122217423D

 39 44  0  0  0  0  0  0  0  0999 V2000
   12.0500    4.7380    2.5240 C   0  0  0  0  0  0  0  0  0  0  0  0
   12.0430    4.1590    1.2490 C   0  0  0  0  0  3  0  0  0  0  0  0
   11.2610    3.0280    0.9820 C   0  0  0  0  0  3  0  0  0  0  0  0
   10.4830    2.4630    1.9930 C   0  0  0  0  0  0  0  0  0  0  0  0
   10.5380    3.0210    3.2760 C   0  0  0  0  0  0  0  0  0  0  0  0
    9.8010    2.4950    4.2670 F   0  0  0  0  0  0  0  0  0  0  0  0
   11.3130    4.1430    3.5490 C   0  0  0  0  0  3  0  0  0  0  0  0
   15.6080    9.3480    3.9120 C   0  0  0  0  0  0  0  0  0  0  0  0
   14.5710   10.1180    3.3620 C   0  0  0  0  0  3  0  0  0  0  0  0
   13.4050    9.5400    2.8430 C   0  0  0  0  0  3  0  0  0  0  0  0
   13.3000    8.1440    2.8910 C   0  0  0  0  0  0  0  0  0  0  0  0
   14.3090    7.3470    3.4270 C   0  0  0  0  0  0  0  0  0  0  0  0
   15.4700    7.9470    3.9410 C   0  0  0  0  0  3  0  0  0  0  0  0
   13.9720    6.0170    3.3600 N   0  0  0  0  0  0  0  0  0  0  0  0
   12.7890    5.9700    2.7830 C   0  0  0  0  0  0  0  0  0  0  0  0
   12.3260    7.2470    2.5040 N   0  0  0  0  0  0  0  0  0  0  0  0
   11.0160    7.5690    1.9430 C   0  0  0  0  0  3  0  0  0  0  0  0
   10.3050    8.7110    2.6850 C   0  0  0  0  0  2  0  0  0  0  0  0
    8.9130    8.9620    2.1060 C   0  0  0  0  0  2  0  0  0  0  0  0
    8.9660    9.2070    0.6000 C   0  0  0  0  0  2  0  0  0  0  0  0
    9.6650    8.0670   -0.1350 C   0  0  0  0  0  2  0  0  0  0  0  0
   11.0620    7.8040    0.4260 C   0  0  0  0  0  2  0  0  0  0  0  0
   16.9000   11.2870    4.4040 O   0  0  0  0  0  0  0  0  0  0  0  0
   16.8520   10.0170    4.4640 C   0  0  0  0  0  0  0  0  0  0  0  0
   17.7550    9.2630    4.9450 O   0  0  0  0  0  1  0  0  0  0  0  0
    9.6150    1.4130    1.8480 O   0  0  0  0  0  0  0  0  0  0  0  0
    9.7870    0.5140    0.7470 C   0  0  0  0  0  2  0  0  0  0  0  0
    9.4410   -0.9390    1.0460 C   0  0  0  0  0  0  0  0  0  0  0  0
    8.6460   -1.2710    2.1590 C   0  0  0  0  0  3  0  0  0  0  0  0
    8.3020   -2.5960    2.4320 C   0  0  0  0  0  3  0  0  0  0  0  0
    8.7650   -3.6160    1.6100 C   0  0  0  0  0  3  0  0  0  0  0  0
    9.5840   -3.3100    0.5230 C   0  0  0  0  0  3  0  0  0  0  0  0
    9.9430   -1.9810    0.2300 C   0  0  0  0  0  0  0  0  0  0  0  0
   10.8480   -1.7280   -0.8990 C   0  0  0  0  0  0  0  0  0  0  0  0
   10.5570   -0.7200   -1.8320 C   0  0  0  0  0  3  0  0  0  0  0  0
   11.4120   -0.4730   -2.9080 C   0  0  0  0  0  3  0  0  0  0  0  0
   12.5720   -1.2290   -3.0620 C   0  0  0  0  0  3  0  0  0  0  0  0
   12.8770   -2.2300   -2.1410 C   0  0  0  0  0  3  0  0  0  0  0  0
   12.0210   -2.4770   -1.0650 C   0  0  0  0  0  3  0  0  0  0  0  0
  1 15  1  0  0  0  0
  1  7  1  0  0  0  0
  2  1  2  0  0  0  0
  3  2  1  0  0  0  0
  3  4  2  0  0  0  0
  4  5  1  0  0  0  0
  5  7  2  0  0  0  0
  5  6  1  0  0  0  0
  8 13  1  0  0  0  0
  8 24  1  0  0  0  0
  9  8  2  0  0  0  0
 10 11  2  0  0  0  0
 10  9  1  0  0  0  0
 11 12  1  0  0  0  0
 12 13  2  0  0  0  0
 14 12  1  0  0  0  0
 15 14  2  0  0  0  0
 16 15  1  0  0  0  0
 16 11  1  0  0  0  0
 17 16  1  0  0  0  0
 17 18  1  0  0  0  0
 19 18  1  0  0  0  0
 20 19  1  0  0  0  0
 21 22  1  0  0  0  0
 21 20  1  0  0  0  0
 22 17  1  0  0  0  0
 23 24  2  0  0  0  0
 24 25  1  0  0  0  0
 26  4  1  0  0  0  0
 27 28  1  0  0  0  0
 27 26  1  0  0  0  0
 28 29  1  0  0  0  0
 29 30  2  0  0  0  0
 31 30  1  0  0  0  0
 32 31  2  0  0  0  0
 33 32  1  0  0  0  0
 33 28  2  0  0  0  0
 34 33  1  0  0  0  0
 35 34  2  0  0  0  0
 36 35  1  0  0  0  0
 37 36  2  0  0  0  0
 37 38  1  0  0  0  0
 38 39  2  0  0  0  0
 39 34  1  0  0  0  0
M  END
>  <minimizedAffinity>
-7.36731863

$$$$

 OpenBabel09122217423D

 39 44  0  0  0  0  0  0  0  0999 V2000
   12.0610    6.2650   -0.5150 C   0  0  0  0  0  0  0  0  0  0  0  0
   11.3800    7.4880   -0.5680 C   0  0  0  0  0  3  0  0  0  0  0  0
   11.7780    8.4890   -1.4620 C   0  0  0  0  0  3  0  0  0  0  0  0
   12.8670    8.2770   -2.3090 C   0  0  0  0  0  0  0  0  0  0  0  0
   13.5700    7.0710   -2.2090 C   0  0  0  0  0  0  0  0  0  0  0  0
   14.6230    6.8420   -3.0100 F   0  0  0  0  0  0  0  0  0  0  0  0
   13.1820    6.0720   -1.3220 C   0  0  0  0  0  3  0  0  0  0  0  0
    9.8980    1.4980    2.3900 C   0  0  0  0  0  0  0  0  0  0  0  0
   10.3130    2.1970    3.5350 C   0  0  0  0  0  3  0  0  0  0  0  0
   10.9260    3.4540    3.4610 C   0  0  0  0  0  3  0  0  0  0  0  0
   11.1160    4.0070    2.1880 C   0  0  0  0  0  0  0  0  0  0  0  0
   10.7200    3.3420    1.0300 C   0  0  0  0  0  0  0  0  0  0  0  0
   10.1080    2.0820    1.1260 C   0  0  0  0  0  3  0  0  0  0  0  0
   11.0140    4.0860   -0.0870 N   0  0  0  0  0  0  0  0  0  0  0  0
   11.5940    5.1850    0.3490 C   0  0  0  0  0  0  0  0  0  0  0  0
   11.6540    5.1930    1.7340 N   0  0  0  0  0  0  0  0  0  0  0  0
   12.1570    6.2940    2.5530 C   0  0  0  0  0  3  0  0  0  0  0  0
   11.0400    7.1770    3.1310 C   0  0  0  0  0  2  0  0  0  0  0  0
   11.6180    8.3520    3.9190 C   0  0  0  0  0  2  0  0  0  0  0  0
   12.5880    7.8820    4.9990 C   0  0  0  0  0  2  0  0  0  0  0  0
   13.7020    7.0120    4.4210 C   0  0  0  0  0  2  0  0  0  0  0  0
   13.1430    5.8280    3.6330 C   0  0  0  0  0  2  0  0  0  0  0  0
    8.6220   -0.3010    1.4940 O   0  0  0  0  0  0  0  0  0  0  0  0
    9.2360    0.1390    2.5170 C   0  0  0  0  0  0  0  0  0  0  0  0
    9.3400   -0.4580    3.6340 O   0  0  0  0  0  1  0  0  0  0  0  0
   13.3080    9.1340   -3.2810 O   0  0  0  0  0  0  0  0  0  0  0  0
   14.2080   10.1890   -2.9250 C   0  0  0  0  0  2  0  0  0  0  0  0
   15.6810    9.8040   -2.9290 C   0  0  0  0  0  0  0  0  0  0  0  0
   16.3620    9.5900   -4.1430 C   0  0  0  0  0  3  0  0  0  0  0  0
   17.7180    9.2590   -4.1610 C   0  0  0  0  0  3  0  0  0  0  0  0
   18.4130    9.1150   -2.9680 C   0  0  0  0  0  3  0  0  0  0  0  0
   17.7480    9.2890   -1.7550 C   0  0  0  0  0  3  0  0  0  0  0  0
   16.3810    9.6210   -1.7120 C   0  0  0  0  0  0  0  0  0  0  0  0
   15.7260    9.7420   -0.4030 C   0  0  0  0  0  0  0  0  0  0  0  0
   15.3780    8.5940    0.3280 C   0  0  0  0  0  3  0  0  0  0  0  0
   14.7550    8.7010    1.5720 C   0  0  0  0  0  3  0  0  0  0  0  0
   14.4750    9.9580    2.1050 C   0  0  0  0  0  3  0  0  0  0  0  0
   14.8190   11.1060    1.3940 C   0  0  0  0  0  3  0  0  0  0  0  0
   15.4420   11.0000    0.1480 C   0  0  0  0  0  3  0  0  0  0  0  0
  1 15  1  0  0  0  0
  2  1  1  0  0  0  0
  3  2  2  0  0  0  0
  4  5  2  0  0  0  0
  4  3  1  0  0  0  0
  5  7  1  0  0  0  0
  6  5  1  0  0  0  0
  7  1  2  0  0  0  0
  8 24  1  0  0  0  0
  8  9  1  0  0  0  0
 10  9  2  0  0  0  0
 11 10  1  0  0  0  0
 12 13  1  0  0  0  0
 12 11  2  0  0  0  0
 13  8  2  0  0  0  0
 14 15  2  0  0  0  0
 14 12  1  0  0  0  0
 15 16  1  0  0  0  0
 16 11  1  0  0  0  0
 16 17  1  0  0  0  0
 17 18  1  0  0  0  0
 17 22  1  0  0  0  0
 18 19  1  0  0  0  0
 19 20  1  0  0  0  0
 21 20  1  0  0  0  0
 22 21  1  0  0  0  0
 23 24  2  0  0  0  0
 24 25  1  0  0  0  0
 26 27  1  0  0  0  0
 26  4  1  0  0  0  0
 28 27  1  0  0  0  0
 28 33  1  0  0  0  0
 29 28  2  0  0  0  0
 30 29  1  0  0  0  0
 30 31  2  0  0  0  0
 31 32  1  0  0  0  0
 32 33  2  0  0  0  0
 33 34  1  0  0  0  0
 34 39  2  0  0  0  0
 34 35  1  0  0  0  0
 35 36  2  0  0  0  0
 36 37  1  0  0  0  0
 38 37  2  0  0  0  0
 39 38  1  0  0  0  0
M  END
>  <minimizedAffinity>
-7.21349764

$$$$
