
 OpenBabel09122222393D

 39 44  0  0  0  0  0  0  0  0999 V2000
   12.0610    6.2650   -0.5150 C   0  0  0  0  0  0  0  0  0  0  0  0
   11.3800    7.4880   -0.5680 C   0  0  0  0  0  3  0  0  0  0  0  0
   11.7780    8.4890   -1.4620 C   0  0  0  0  0  3  0  0  0  0  0  0
   12.8670    8.2770   -2.3090 C   0  0  0  0  0  0  0  0  0  0  0  0
   13.5700    7.0710   -2.2090 C   0  0  0  0  0  0  0  0  0  0  0  0
   14.6230    6.8420   -3.0100 F   0  0  0  0  0  0  0  0  0  0  0  0
   13.1820    6.0720   -1.3220 C   0  0  0  0  0  3  0  0  0  0  0  0
    9.8980    1.4980    2.3900 C   0  0  0  0  0  0  0  0  0  0  0  0
   10.3130    2.1970    3.5350 C   0  0  0  0  0  3  0  0  0  0  0  0
   10.9260    3.4540    3.4610 C   0  0  0  0  0  3  0  0  0  0  0  0
   11.1160    4.0070    2.1880 C   0  0  0  0  0  0  0  0  0  0  0  0
   10.7200    3.3420    1.0300 C   0  0  0  0  0  0  0  0  0  0  0  0
   10.1080    2.0820    1.1260 C   0  0  0  0  0  3  0  0  0  0  0  0
   11.0140    4.0860   -0.0870 N   0  0  0  0  0  0  0  0  0  0  0  0
   11.5940    5.1850    0.3490 C   0  0  0  0  0  0  0  0  0  0  0  0
   11.6540    5.1930    1.7340 N   0  0  0  0  0  0  0  0  0  0  0  0
   12.1570    6.2940    2.5530 C   0  0  0  0  0  3  0  0  0  0  0  0
   11.0400    7.1770    3.1310 C   0  0  0  0  0  2  0  0  0  0  0  0
   11.6180    8.3520    3.9190 C   0  0  0  0  0  2  0  0  0  0  0  0
   12.5880    7.8820    4.9990 C   0  0  0  0  0  2  0  0  0  0  0  0
   13.7020    7.0120    4.4210 C   0  0  0  0  0  2  0  0  0  0  0  0
   13.1430    5.8280    3.6330 C   0  0  0  0  0  2  0  0  0  0  0  0
    8.6220   -0.3010    1.4940 O   0  0  0  0  0  0  0  0  0  0  0  0
    9.2360    0.1390    2.5170 C   0  0  0  0  0  0  0  0  0  0  0  0
    9.3400   -0.4580    3.6340 O   0  0  0  0  0  1  0  0  0  0  0  0
   13.3080    9.1340   -3.2810 O   0  0  0  0  0  0  0  0  0  0  0  0
   14.2080   10.1890   -2.9250 C   0  0  0  0  0  2  0  0  0  0  0  0
   15.6810    9.8040   -2.9290 C   0  0  0  0  0  0  0  0  0  0  0  0
   16.3620    9.5900   -4.1430 C   0  0  0  0  0  3  0  0  0  0  0  0
   17.7180    9.2590   -4.1610 C   0  0  0  0  0  3  0  0  0  0  0  0
   18.4130    9.1150   -2.9680 C   0  0  0  0  0  3  0  0  0  0  0  0
   17.7480    9.2890   -1.7550 C   0  0  0  0  0  3  0  0  0  0  0  0
   16.3810    9.6210   -1.7120 C   0  0  0  0  0  0  0  0  0  0  0  0
   15.7260    9.7420   -0.4030 C   0  0  0  0  0  0  0  0  0  0  0  0
   15.3780    8.5940    0.3280 C   0  0  0  0  0  3  0  0  0  0  0  0
   14.7550    8.7010    1.5720 C   0  0  0  0  0  3  0  0  0  0  0  0
   14.4750    9.9580    2.1050 C   0  0  0  0  0  3  0  0  0  0  0  0
   14.8190   11.1060    1.3940 C   0  0  0  0  0  3  0  0  0  0  0  0
   15.4420   11.0000    0.1480 C   0  0  0  0  0  3  0  0  0  0  0  0
  1 15  1  0  0  0  0
  2  1  1  0  0  0  0
  3  2  2  0  0  0  0
  4  5  2  0  0  0  0
  4  3  1  0  0  0  0
  5  7  1  0  0  0  0
  6  5  1  0  0  0  0
  7  1  2  0  0  0  0
  8 24  1  0  0  0  0
  8  9  1  0  0  0  0
 10  9  2  0  0  0  0
 11 10  1  0  0  0  0
 12 13  1  0  0  0  0
 12 11  2  0  0  0  0
 13  8  2  0  0  0  0
 14 15  2  0  0  0  0
 14 12  1  0  0  0  0
 15 16  1  0  0  0  0
 16 11  1  0  0  0  0
 16 17  1  0  0  0  0
 17 18  1  0  0  0  0
 17 22  1  0  0  0  0
 18 19  1  0  0  0  0
 19 20  1  0  0  0  0
 21 20  1  0  0  0  0
 22 21  1  0  0  0  0
 23 24  2  0  0  0  0
 24 25  1  0  0  0  0
 26 27  1  0  0  0  0
 26  4  1  0  0  0  0
 28 27  1  0  0  0  0
 28 33  1  0  0  0  0
 29 28  2  0  0  0  0
 30 29  1  0  0  0  0
 30 31  2  0  0  0  0
 31 32  1  0  0  0  0
 32 33  2  0  0  0  0
 33 34  1  0  0  0  0
 34 39  2  0  0  0  0
 34 35  1  0  0  0  0
 35 36  2  0  0  0  0
 36 37  1  0  0  0  0
 38 37  2  0  0  0  0
 39 38  1  0  0  0  0
M  END
>  <minimizedAffinity>
-7.21349764

$$$$
