
 OpenBabel09122222393D

 29 32  0  0  1  0  0  0  0  0999 V2000
    8.8050   -2.7350    1.6380 C   0  0  0  0  0  0  0  0  0  0  0  0
    9.8150   -2.8060    0.7500 N   0  0  0  0  0  0  0  0  0  0  0  0
    9.9020   -3.9320    0.0410 C   0  0  0  0  0  3  0  0  0  0  0  0
    9.0720   -4.9710    0.1190 N   0  0  0  0  0  0  0  0  0  0  0  0
    8.0710   -4.8740    0.9870 C   0  0  0  0  0  0  0  0  0  0  0  0
    7.2120   -5.8950    1.0430 N   0  0  0  0  0  0  0  0  0  0  0  0
    6.1570   -5.8310    1.9070 C   0  0  0  0  0  0  0  0  0  0  0  0
    5.9980   -4.7440    2.7760 C   0  0  0  0  0  0  0  0  0  0  0  0
    6.8570   -3.6940    2.7200 N   0  0  0  0  0  0  0  0  0  0  0  0
    7.8760   -3.7640    1.8140 C   0  0  0  0  0  0  0  0  0  0  0  0
    5.2210   -6.9640    1.7830 C   0  0  0  0  0  0  0  0  0  0  0  0
    4.3580   -7.0960    0.6790 C   0  0  0  0  0  3  0  0  0  0  0  0
    3.4830   -8.1810    0.5700 C   0  0  0  0  0  3  0  0  0  0  0  0
    3.4640   -9.1620    1.5580 C   0  0  0  0  0  3  0  0  0  0  0  0
    4.3210   -9.0650    2.6490 C   0  0  0  0  0  3  0  0  0  0  0  0
    5.1950   -7.9780    2.7580 C   0  0  0  0  0  3  0  0  0  0  0  0
    4.9610   -4.6140    3.8150 C   0  0  0  0  0  0  0  0  0  0  0  0
    3.5970   -4.6590    3.4690 C   0  0  0  0  0  3  0  0  0  0  0  0
    2.5990   -4.5310    4.4380 C   0  0  0  0  0  3  0  0  0  0  0  0
    2.9430   -4.3460    5.7730 C   0  0  0  0  0  3  0  0  0  0  0  0
    4.2850   -4.2810    6.1390 C   0  0  0  0  0  3  0  0  0  0  0  0
    5.2840   -4.4070    5.1690 C   0  0  0  0  0  3  0  0  0  0  0  0
    8.6310   -1.5560    2.3600 N   0  0  0  0  0  0  0  0  0  0  0  0
    7.6690   -1.2370    2.4360 H   0  0  0  0  0  0  0  0  0  0  0  0
    9.6450   -1.0240    3.2530 C   0  0  2  0  0  3  0  0  0  0  0  0
    9.3450   -1.4600    4.6860 C   0  0  0  0  0  1  0  0  0  0  0  0
    9.6340    0.5110    3.1020 C   0  0  0  0  0  2  0  0  0  0  0  0
    9.9120    2.2840    1.2870 C   0  0  0  0  0  1  0  0  0  0  0  0
    9.1660    1.0390    1.7430 C   0  0  0  0  0  2  0  0  0  0  0  0
  1 10  2  0  0  0  0
  1 23  1  0  0  0  0
  2  1  1  0  0  0  0
  3  4  1  0  0  0  0
  3  2  2  0  0  0  0
  4  5  2  0  0  0  0
  5  6  1  0  0  0  0
  5 10  1  0  0  0  0
  6  7  2  0  0  0  0
  7  8  1  0  0  0  0
  8 17  1  0  0  0  0
  9  8  2  0  0  0  0
 10  9  1  0  0  0  0
 11  7  1  0  0  0  0
 11 16  1  0  0  0  0
 12 11  2  0  0  0  0
 13 12  1  0  0  0  0
 13 14  2  0  0  0  0
 14 15  1  0  0  0  0
 15 16  2  0  0  0  0
 17 22  1  0  0  0  0
 18 17  2  0  0  0  0
 18 19  1  0  0  0  0
 19 20  2  0  0  0  0
 20 21  1  0  0  0  0
 22 21  2  0  0  0  0
 23 24  1  0  0  0  0
 23 25  1  0  0  0  0
 25 26  1  1  0  0  0
 27 25  1  0  0  0  0
 28 29  1  0  0  0  0
 29 27  1  0  0  0  0
M  END
>  <minimizedAffinity>
-6.57299137

$$$$
