
 OpenBabel09122222393D

 29 32  0  0  1  0  0  0  0  0999 V2000
    5.6290   -7.3810    2.4450 C   0  0  0  0  0  0  0  0  0  0  0  0
    6.5540   -7.0570    1.5220 N   0  0  0  0  0  0  0  0  0  0  0  0
    6.7940   -5.7560    1.3560 C   0  0  0  0  0  3  0  0  0  0  0  0
    6.2200   -4.7620    2.0320 N   0  0  0  0  0  0  0  0  0  0  0  0
    5.3250   -5.1030    2.9530 C   0  0  0  0  0  0  0  0  0  0  0  0
    4.7740   -4.1150    3.6630 N   0  0  0  0  0  0  0  0  0  0  0  0
    3.8630   -4.4200    4.6320 C   0  0  0  0  0  0  0  0  0  0  0  0
    3.4510   -5.7410    4.8490 C   0  0  0  0  0  0  0  0  0  0  0  0
    4.0130   -6.7560    4.1430 N   0  0  0  0  0  0  0  0  0  0  0  0
    4.9560   -6.4270    3.2120 C   0  0  0  0  0  0  0  0  0  0  0  0
    3.4250   -3.2530    5.4200 C   0  0  0  0  0  0  0  0  0  0  0  0
    2.2120   -2.5910    5.1540 C   0  0  0  0  0  3  0  0  0  0  0  0
    1.8050   -1.4910    5.9150 C   0  0  0  0  0  3  0  0  0  0  0  0
    2.5980   -1.0410    6.9670 C   0  0  0  0  0  3  0  0  0  0  0  0
    3.7920   -1.6910    7.2640 C   0  0  0  0  0  3  0  0  0  0  0  0
    4.1990   -2.7890    6.5000 C   0  0  0  0  0  3  0  0  0  0  0  0
    2.4060   -6.1760    5.7930 C   0  0  0  0  0  0  0  0  0  0  0  0
    2.6610   -6.1980    7.1770 C   0  0  0  0  0  3  0  0  0  0  0  0
    1.6870   -6.6130    8.0880 C   0  0  0  0  0  3  0  0  0  0  0  0
    0.4380   -7.0230    7.6330 C   0  0  0  0  0  3  0  0  0  0  0  0
    0.1650   -7.0270    6.2680 C   0  0  0  0  0  3  0  0  0  0  0  0
    1.1420   -6.6140    5.3560 C   0  0  0  0  0  3  0  0  0  0  0  0
    5.3850   -8.7280    2.7030 N   0  0  0  0  0  0  0  0  0  0  0  0
    5.7580   -9.0710    3.5840 H   0  0  0  0  0  0  0  0  0  0  0  0
    4.3740   -9.4940    1.9960 C   0  0  2  0  0  3  0  0  0  0  0  0
    3.7370   -8.6250    0.9130 C   0  0  0  0  0  1  0  0  0  0  0  0
    3.3410   -9.9690    3.0380 C   0  0  0  0  0  2  0  0  0  0  0  0
    0.9170   -9.9580    3.8390 C   0  0  0  0  0  1  0  0  0  0  0  0
    1.8740   -9.7070    2.6840 C   0  0  0  0  0  2  0  0  0  0  0  0
  1 23  1  0  0  0  0
  1 10  2  0  0  0  0
  2  1  1  0  0  0  0
  3  2  2  0  0  0  0
  3  4  1  0  0  0  0
  4  5  2  0  0  0  0
  5 10  1  0  0  0  0
  5  6  1  0  0  0  0
  6  7  2  0  0  0  0
  7  8  1  0  0  0  0
  7 11  1  0  0  0  0
  8 17  1  0  0  0  0
  9  8  2  0  0  0  0
 10  9  1  0  0  0  0
 11 16  1  0  0  0  0
 12 11  2  0  0  0  0
 12 13  1  0  0  0  0
 13 14  2  0  0  0  0
 14 15  1  0  0  0  0
 16 15  2  0  0  0  0
 17 18  1  0  0  0  0
 18 19  2  0  0  0  0
 20 19  1  0  0  0  0
 21 20  2  0  0  0  0
 22 17  2  0  0  0  0
 22 21  1  0  0  0  0
 23 24  1  0  0  0  0
 25 26  1  6  0  0  0
 25 23  1  0  0  0  0
 25 27  1  0  0  0  0
 29 27  1  0  0  0  0
 29 28  1  0  0  0  0
M  END
>  <minimizedAffinity>
-6.68264294

$$$$
