
 OpenBabel09122222393D

 29 32  0  0  1  0  0  0  0  0999 V2000
    5.3180   -7.2430    2.4710 C   0  0  0  0  0  0  0  0  0  0  0  0
    5.6960   -8.4610    2.0400 N   0  0  0  0  0  0  0  0  0  0  0  0
    5.1650   -9.5060    2.6740 C   0  0  0  0  0  3  0  0  0  0  0  0
    4.2850   -9.4490    3.6730 N   0  0  0  0  0  0  0  0  0  0  0  0
    3.9090   -8.2390    4.0720 C   0  0  0  0  0  0  0  0  0  0  0  0
    2.9970   -8.1750    5.0450 N   0  0  0  0  0  0  0  0  0  0  0  0
    2.5670   -6.9520    5.4750 C   0  0  0  0  0  0  0  0  0  0  0  0
    3.1120   -5.7700    4.9560 C   0  0  0  0  0  0  0  0  0  0  0  0
    4.0290   -5.8220    3.9560 N   0  0  0  0  0  0  0  0  0  0  0  0
    4.4070   -7.0580    3.5150 C   0  0  0  0  0  0  0  0  0  0  0  0
    1.4760   -7.0230    6.4640 C   0  0  0  0  0  0  0  0  0  0  0  0
    0.1380   -7.2220    6.0800 C   0  0  0  0  0  3  0  0  0  0  0  0
   -0.8850   -7.2980    7.0300 C   0  0  0  0  0  3  0  0  0  0  0  0
   -0.5860   -7.1860    8.3850 C   0  0  0  0  0  3  0  0  0  0  0  0
    0.7320   -7.0090    8.7920 C   0  0  0  0  0  3  0  0  0  0  0  0
    1.7540   -6.9320    7.8410 C   0  0  0  0  0  3  0  0  0  0  0  0
    2.8000   -4.4030    5.4110 C   0  0  0  0  0  0  0  0  0  0  0  0
    2.0970   -3.5170    4.5720 C   0  0  0  0  0  3  0  0  0  0  0  0
    1.7980   -2.2150    4.9810 C   0  0  0  0  0  3  0  0  0  0  0  0
    2.2010   -1.7700    6.2360 C   0  0  0  0  0  3  0  0  0  0  0  0
    2.9110   -2.6210    7.0780 C   0  0  0  0  0  3  0  0  0  0  0  0
    3.2130   -3.9230    6.6660 C   0  0  0  0  0  3  0  0  0  0  0  0
    5.7950   -6.1180    1.8020 N   0  0  0  0  0  0  0  0  0  0  0  0
    6.6180   -5.6900    2.2150 H   0  0  0  0  0  0  0  0  0  0  0  0
    5.4160   -5.7940    0.4380 C   0  0  2  0  0  3  0  0  0  0  0  0
    4.4460   -6.8500   -0.0890 C   0  0  0  0  0  1  0  0  0  0  0  0
    6.7100   -5.7280   -0.3980 C   0  0  0  0  0  2  0  0  0  0  0  0
    8.8310   -4.3180   -0.2360 C   0  0  0  0  0  1  0  0  0  0  0  0
    7.9900   -5.4230    0.3850 C   0  0  0  0  0  2  0  0  0  0  0  0
  1 10  2  0  0  0  0
  2  1  1  0  0  0  0
  2  3  2  0  0  0  0
  3  4  1  0  0  0  0
  4  5  2  0  0  0  0
  5  6  1  0  0  0  0
  6  7  2  0  0  0  0
  7 11  1  0  0  0  0
  8 17  1  0  0  0  0
  8  7  1  0  0  0  0
  9  8  2  0  0  0  0
 10  9  1  0  0  0  0
 10  5  1  0  0  0  0
 11 16  1  0  0  0  0
 12 11  2  0  0  0  0
 12 13  1  0  0  0  0
 13 14  2  0  0  0  0
 14 15  1  0  0  0  0
 16 15  2  0  0  0  0
 17 22  1  0  0  0  0
 18 19  1  0  0  0  0
 18 17  2  0  0  0  0
 19 20  2  0  0  0  0
 20 21  1  0  0  0  0
 22 21  2  0  0  0  0
 23 24  1  0  0  0  0
 23  1  1  0  0  0  0
 25 26  1  6  0  0  0
 25 23  1  0  0  0  0
 27 29  1  0  0  0  0
 27 25  1  0  0  0  0
 28 29  1  0  0  0  0
M  END
>  <minimizedAffinity>
-6.84257126

$$$$
