
 OpenBabel09122222393D

 29 32  0  0  1  0  0  0  0  0999 V2000
    8.1270   -2.8350    5.7830 C   0  0  0  0  0  0  0  0  0  0  0  0
    8.7560   -2.1870    6.7810 N   0  0  0  0  0  0  0  0  0  0  0  0
    9.9330   -1.6370    6.4810 C   0  0  0  0  0  3  0  0  0  0  0  0
   10.5220   -1.6550    5.2860 N   0  0  0  0  0  0  0  0  0  0  0  0
    9.8770   -2.2830    4.3090 C   0  0  0  0  0  0  0  0  0  0  0  0
   10.4420   -2.2710    3.1000 N   0  0  0  0  0  0  0  0  0  0  0  0
    9.8060   -2.8890    2.0610 C   0  0  0  0  0  0  0  0  0  0  0  0
    8.6060   -3.5840    2.2590 C   0  0  0  0  0  0  0  0  0  0  0  0
    8.0140   -3.5920    3.4800 N   0  0  0  0  0  0  0  0  0  0  0  0
    8.6490   -2.9280    4.4900 C   0  0  0  0  0  0  0  0  0  0  0  0
   10.4750   -2.6990    0.7610 C   0  0  0  0  0  0  0  0  0  0  0  0
   11.4490   -3.5970    0.2900 C   0  0  0  0  0  3  0  0  0  0  0  0
   12.0680   -3.4100   -0.9500 C   0  0  0  0  0  3  0  0  0  0  0  0
   11.7150   -2.3260   -1.7480 C   0  0  0  0  0  3  0  0  0  0  0  0
   10.7390   -1.4330   -1.3130 C   0  0  0  0  0  3  0  0  0  0  0  0
   10.1220   -1.6210   -0.0730 C   0  0  0  0  0  3  0  0  0  0  0  0
    7.8850   -4.3680    1.2390 C   0  0  0  0  0  0  0  0  0  0  0  0
    6.7770   -5.1580    1.6020 C   0  0  0  0  0  3  0  0  0  0  0  0
    6.0840   -5.9140    0.6530 C   0  0  0  0  0  3  0  0  0  0  0  0
    6.4890   -5.9010   -0.6780 C   0  0  0  0  0  3  0  0  0  0  0  0
    7.5910   -5.1410   -1.0590 C   0  0  0  0  0  3  0  0  0  0  0  0
    8.2860   -4.3870   -0.1080 C   0  0  0  0  0  3  0  0  0  0  0  0
    6.8650   -3.3740    6.0260 N   0  0  0  0  0  0  0  0  0  0  0  0
    6.8310   -4.3890    6.0590 H   0  0  0  0  0  0  0  0  0  0  0  0
    5.7670   -2.5940    6.5670 C   0  0  2  0  0  3  0  0  0  0  0  0
    5.5560   -2.9550    8.0360 C   0  0  0  0  0  1  0  0  0  0  0  0
    4.5190   -2.8960    5.7120 C   0  0  0  0  0  2  0  0  0  0  0  0
    3.7750   -3.9060    3.4890 C   0  0  0  0  0  1  0  0  0  0  0  0
    4.6630   -4.0500    4.7160 C   0  0  0  0  0  2  0  0  0  0  0  0
  1 23  1  0  0  0  0
  1  2  1  0  0  0  0
  3  2  2  0  0  0  0
  4  3  1  0  0  0  0
  5 10  1  0  0  0  0
  5  4  2  0  0  0  0
  6  5  1  0  0  0  0
  7  8  1  0  0  0  0
  7  6  2  0  0  0  0
  8  9  2  0  0  0  0
  9 10  1  0  0  0  0
 10  1  2  0  0  0  0
 11  7  1  0  0  0  0
 12 11  1  0  0  0  0
 13 12  2  0  0  0  0
 14 15  2  0  0  0  0
 14 13  1  0  0  0  0
 15 16  1  0  0  0  0
 16 11  2  0  0  0  0
 17 18  1  0  0  0  0
 17  8  1  0  0  0  0
 19 18  2  0  0  0  0
 20 19  1  0  0  0  0
 21 20  2  0  0  0  0
 21 22  1  0  0  0  0
 22 17  2  0  0  0  0
 23 24  1  0  0  0  0
 23 25  1  0  0  0  0
 25 26  1  1  0  0  0
 27 25  1  0  0  0  0
 28 29  1  0  0  0  0
 29 27  1  0  0  0  0
M  END
>  <minimizedAffinity>
-6.96827936

$$$$
