
 OpenBabel09122222393D

 29 32  0  0  1  0  0  0  0  0999 V2000
    5.2260   -2.7860    7.8630 C   0  0  0  0  0  0  0  0  0  0  0  0
    6.2680   -1.9360    7.9080 N   0  0  0  0  0  0  0  0  0  0  0  0
    7.1150   -1.9810    6.8800 C   0  0  0  0  0  3  0  0  0  0  0  0
    7.0080   -2.7720    5.8130 N   0  0  0  0  0  0  0  0  0  0  0  0
    5.9620   -3.5900    5.7770 C   0  0  0  0  0  0  0  0  0  0  0  0
    5.8250   -4.3570    4.6920 N   0  0  0  0  0  0  0  0  0  0  0  0
    4.7550   -5.2000    4.6040 C   0  0  0  0  0  0  0  0  0  0  0  0
    3.8380   -5.3180    5.6560 C   0  0  0  0  0  0  0  0  0  0  0  0
    3.9580   -4.5340    6.7580 N   0  0  0  0  0  0  0  0  0  0  0  0
    5.0120   -3.6670    6.8000 C   0  0  0  0  0  0  0  0  0  0  0  0
    4.6580   -5.8980    3.3080 C   0  0  0  0  0  0  0  0  0  0  0  0
    4.6730   -5.2010    2.0870 C   0  0  0  0  0  3  0  0  0  0  0  0
    4.5910   -5.8760    0.8660 C   0  0  0  0  0  3  0  0  0  0  0  0
    4.5030   -7.2650    0.8430 C   0  0  0  0  0  3  0  0  0  0  0  0
    4.5060   -7.9800    2.0370 C   0  0  0  0  0  3  0  0  0  0  0  0
    4.5880   -7.3030    3.2580 C   0  0  0  0  0  3  0  0  0  0  0  0
    2.7080   -6.2630    5.7140 C   0  0  0  0  0  0  0  0  0  0  0  0
    1.4360   -5.8810    5.2460 C   0  0  0  0  0  3  0  0  0  0  0  0
    0.3500   -6.7590    5.2980 C   0  0  0  0  0  3  0  0  0  0  0  0
    0.5120   -8.0360    5.8270 C   0  0  0  0  0  3  0  0  0  0  0  0
    1.7550   -8.4320    6.3120 C   0  0  0  0  0  3  0  0  0  0  0  0
    2.8410   -7.5520    6.2620 C   0  0  0  0  0  3  0  0  0  0  0  0
    4.2770   -2.7360    8.8820 N   0  0  0  0  0  0  0  0  0  0  0  0
    4.3960   -3.4300    9.6140 H   0  0  0  0  0  0  0  0  0  0  0  0
    3.4250   -1.5820    9.1080 C   0  0  2  0  0  3  0  0  0  0  0  0
    3.0540   -1.5010   10.5880 C   0  0  0  0  0  1  0  0  0  0  0  0
    2.1820   -1.7410    8.2080 C   0  0  0  0  0  2  0  0  0  0  0  0
    1.9220   -1.8420    5.6710 C   0  0  0  0  0  1  0  0  0  0  0  0
    2.2220   -0.9740    6.8830 C   0  0  0  0  0  2  0  0  0  0  0  0
  1  2  1  0  0  0  0
  1 23  1  0  0  0  0
  3  2  2  0  0  0  0
  4  3  1  0  0  0  0
  5  4  2  0  0  0  0
  5 10  1  0  0  0  0
  6  5  1  0  0  0  0
  7  6  2  0  0  0  0
  7  8  1  0  0  0  0
  8 17  1  0  0  0  0
  8  9  2  0  0  0  0
  9 10  1  0  0  0  0
 10  1  2  0  0  0  0
 11  7  1  0  0  0  0
 12 11  2  0  0  0  0
 13 12  1  0  0  0  0
 14 13  2  0  0  0  0
 14 15  1  0  0  0  0
 15 16  2  0  0  0  0
 16 11  1  0  0  0  0
 17 22  1  0  0  0  0
 18 19  1  0  0  0  0
 18 17  2  0  0  0  0
 19 20  2  0  0  0  0
 20 21  1  0  0  0  0
 22 21  2  0  0  0  0
 23 25  1  0  0  0  0
 23 24  1  0  0  0  0
 25 26  1  1  0  0  0
 27 25  1  0  0  0  0
 28 29  1  0  0  0  0
 29 27  1  0  0  0  0
M  END
>  <minimizedAffinity>
-6.14908791

$$$$
