
 OpenBabel08162216383D

 31 33  0  0  1  0  0  0  0  0999 V2000
  -31.7680   60.6830   55.0300 C   0  0  0  0  0  0  0  0  0  0  0  0
  -32.7650   61.0950   54.1350 C   0  0  0  0  0  3  0  0  0  0  0  0
  -33.7640   61.9530   54.5810 C   0  0  0  0  0  0  0  0  0  0  0  0
  -35.1020   62.5350   53.3810 Br  0  0  0  0  0  0  0  0  0  0  0  0
  -33.7900   62.3770   55.9080 C   0  0  0  0  0  3  0  0  0  0  0  0
  -32.8070   61.9420   56.8050 C   0  0  0  0  0  3  0  0  0  0  0  0
  -31.7770   61.1000   56.3760 C   0  0  0  0  0  0  0  0  0  0  0  0
  -28.5590   63.6350   52.2860 C   0  0  0  0  0  1  0  0  0  0  0  0
  -29.0090   62.1770   52.3280 C   0  0  1  0  0  3  0  0  0  0  0  0
  -27.9640   61.2640   51.6650 C   0  0  0  0  0  2  0  0  0  0  0  0
  -28.3750   59.7860   51.7650 C   0  0  1  0  0  3  0  0  0  0  0  0
  -27.3010   58.8820   51.1690 C   0  0  0  0  0  1  0  0  0  0  0  0
  -28.6650   59.3990   53.2220 C   0  0  0  0  0  2  0  0  0  0  0  0
  -29.6360   60.3130   53.8200 N   0  0  0  0  0  0  0  0  0  0  0  0
  -30.7020   59.7840   54.5390 C   0  0  0  0  0  0  0  0  0  0  0  0
  -30.8070   58.5930   54.8260 O   0  0  0  0  0  0  0  0  0  0  0  0
  -29.2640   61.7290   53.7710 C   0  0  0  0  0  2  0  0  0  0  0  0
  -30.7990   60.5940   57.2540 N   0  0  0  0  0  0  0  0  0  0  0  0
  -30.8780   59.8540   58.3950 C   0  0  0  0  0  0  0  0  0  0  0  0
  -29.8350   59.3990   58.8740 O   0  0  0  0  0  0  0  0  0  0  0  0
  -29.8340   60.8270   57.0080 H   0  0  0  0  0  0  0  0  0  0  0  0
  -32.1900   59.6980   59.1330 C   0  0  0  0  0  2  0  0  0  0  0  0
  -32.2970   60.7080   60.2770 C   0  0  0  0  0  2  0  0  0  0  0  0
  -32.5340   59.9760   61.5850 C   0  0  0  0  0  0  0  0  0  0  0  0
  -33.0440   58.8530   61.5510 O   0  0  0  0  0  0  0  0  0  0  0  0
  -32.2400   60.6040   62.7810 N   0  0  0  0  0  0  0  0  0  0  0  0
  -31.7270   61.9710   62.9460 C   0  0  0  0  0  2  0  0  0  0  0  0
  -30.7610   62.0820   64.1300 C   0  0  0  0  0  2  0  0  0  0  0  0
  -31.3460   61.5540   65.3290 O   0  0  0  0  0  0  0  0  0  0  0  0
  -31.6470   60.1610   65.1540 C   0  0  0  0  0  2  0  0  0  0  0  0
  -32.6630   59.9600   64.0290 C   0  0  0  0  0  2  0  0  0  0  0  0
  1  7  1  0  0  0  0
  2  3  1  0  0  0  0
  2  1  2  0  0  0  0
  3  5  2  0  0  0  0
  4  3  1  0  0  0  0
  5  6  1  0  0  0  0
  7  6  2  0  0  0  0
  7 18  1  0  0  0  0
  9  8  1  1  0  0  0
  9 17  1  0  0  0  0
 10 11  1  0  0  0  0
 10  9  1  0  0  0  0
 11 12  1  1  0  0  0
 11 13  1  0  0  0  0
 13 14  1  0  0  0  0
 14 15  1  0  0  0  0
 15 16  2  0  0  0  0
 15  1  1  0  0  0  0
 17 14  1  0  0  0  0
 18 19  1  0  0  0  0
 19 20  2  0  0  0  0
 19 22  1  0  0  0  0
 21 18  1  0  0  0  0
 22 23  1  0  0  0  0
 23 24  1  0  0  0  0
 24 26  1  0  0  0  0
 25 24  2  0  0  0  0
 26 27  1  0  0  0  0
 26 31  1  0  0  0  0
 27 28  1  0  0  0  0
 28 29  1  0  0  0  0
 30 29  1  0  0  0  0
 31 30  1  0  0  0  0
M  END
>  <minimizedAffinity>
-7.73378611

$$$$
