
 OpenBabel08162216383D

 31 33  0  0  1  0  0  0  0  0999 V2000
  -17.1940   58.5940   54.3970 C   0  0  0  0  0  0  0  0  0  0  0  0
  -15.9730   58.3080   55.0220 C   0  0  0  0  0  3  0  0  0  0  0  0
  -14.9130   59.1950   54.8770 C   0  0  0  0  0  0  0  0  0  0  0  0
  -13.2670   58.8350   55.7320 Br  0  0  0  0  0  0  0  0  0  0  0  0
  -15.0520   60.3420   54.0970 C   0  0  0  0  0  3  0  0  0  0  0  0
  -16.2660   60.6100   53.4520 C   0  0  0  0  0  3  0  0  0  0  0  0
  -17.3560   59.7480   53.6030 C   0  0  0  0  0  0  0  0  0  0  0  0
  -17.6960   57.8980   59.4760 C   0  0  0  0  0  1  0  0  0  0  0  0
  -17.9690   57.1240   58.1890 C   0  0  1  0  0  3  0  0  0  0  0  0
  -19.0270   56.0320   58.4220 C   0  0  0  0  0  2  0  0  0  0  0  0
  -19.3590   55.2940   57.1160 C   0  0  1  0  0  3  0  0  0  0  0  0
  -20.4590   54.2610   57.3410 C   0  0  0  0  0  1  0  0  0  0  0  0
  -19.7630   56.2880   56.0170 C   0  0  0  0  0  2  0  0  0  0  0  0
  -18.7460   57.3240   55.8550 N   0  0  0  0  0  0  0  0  0  0  0  0
  -18.3200   57.6520   54.5720 C   0  0  0  0  0  0  0  0  0  0  0  0
  -18.8450   57.2210   53.5470 O   0  0  0  0  0  0  0  0  0  0  0  0
  -18.4240   58.0710   57.0740 C   0  0  0  0  0  2  0  0  0  0  0  0
  -18.5770   59.9480   52.9310 N   0  0  0  0  0  0  0  0  0  0  0  0
  -19.6170   60.8020   53.1420 C   0  0  0  0  0  0  0  0  0  0  0  0
  -20.4990   60.8790   52.2820 O   0  0  0  0  0  0  0  0  0  0  0  0
  -18.7370   59.3320   52.1300 H   0  0  0  0  0  0  0  0  0  0  0  0
  -19.7610   61.5450   54.4520 C   0  0  0  0  0  2  0  0  0  0  0  0
  -20.3560   60.6390   55.5320 C   0  0  0  0  0  2  0  0  0  0  0  0
  -21.8600   60.8280   55.5880 C   0  0  0  0  0  0  0  0  0  0  0  0
  -22.3140   61.7670   56.2480 O   0  0  0  0  0  0  0  0  0  0  0  0
  -22.6860   59.9150   54.9600 N   0  0  0  0  0  0  0  0  0  0  0  0
  -22.2630   58.7100   54.2340 C   0  0  0  0  0  2  0  0  0  0  0  0
  -23.1670   58.4160   53.0330 C   0  0  0  0  0  2  0  0  0  0  0  0
  -24.5500   58.3820   53.4190 O   0  0  0  0  0  0  0  0  0  0  0  0
  -24.9410   59.6600   53.9450 C   0  0  0  0  0  2  0  0  0  0  0  0
  -24.1310   60.0060   55.1950 C   0  0  0  0  0  2  0  0  0  0  0  0
  1 15  1  0  0  0  0
  1  2  1  0  0  0  0
  3  2  2  0  0  0  0
  3  4  1  0  0  0  0
  5  3  1  0  0  0  0
  6  7  1  0  0  0  0
  6  5  2  0  0  0  0
  7  1  2  0  0  0  0
  9 10  1  0  0  0  0
  9  8  1  1  0  0  0
 11 12  1  1  0  0  0
 11 10  1  0  0  0  0
 13 11  1  0  0  0  0
 14 13  1  0  0  0  0
 14 17  1  0  0  0  0
 15 14  1  0  0  0  0
 16 15  2  0  0  0  0
 17  9  1  0  0  0  0
 18 19  1  0  0  0  0
 18  7  1  0  0  0  0
 19 22  1  0  0  0  0
 20 19  2  0  0  0  0
 21 18  1  0  0  0  0
 22 23  1  0  0  0  0
 23 24  1  0  0  0  0
 24 25  2  0  0  0  0
 26 31  1  0  0  0  0
 26 24  1  0  0  0  0
 27 26  1  0  0  0  0
 28 29  1  0  0  0  0
 28 27  1  0  0  0  0
 29 30  1  0  0  0  0
 30 31  1  0  0  0  0
M  END
>  <minimizedAffinity>
-7.78844833

$$$$
