
 OpenBabel08162216383D

 31 33  0  0  1  0  0  0  0  0999 V2000
  -20.0730   53.3340   61.8910 C   0  0  0  0  0  0  0  0  0  0  0  0
  -20.6660   52.4120   62.7640 C   0  0  0  0  0  3  0  0  0  0  0  0
  -20.7880   52.7350   64.1110 C   0  0  0  0  0  0  0  0  0  0  0  0
  -21.6060   51.5130   65.2960 Br  0  0  0  0  0  0  0  0  0  0  0  0
  -20.3030   53.9500   64.5930 C   0  0  0  0  0  3  0  0  0  0  0  0
  -19.6860   54.8560   63.7210 C   0  0  0  0  0  3  0  0  0  0  0  0
  -19.5740   54.5660   62.3580 C   0  0  0  0  0  0  0  0  0  0  0  0
  -24.8520   52.2270   60.3210 C   0  0  0  0  0  1  0  0  0  0  0  0
  -23.4190   51.8500   59.9560 C   0  0  1  0  0  3  0  0  0  0  0  0
  -23.3420   51.3310   58.5100 C   0  0  0  0  0  2  0  0  0  0  0  0
  -21.8920   51.0160   58.1110 C   0  0  1  0  0  3  0  0  0  0  0  0
  -21.8150   50.5680   56.6540 C   0  0  0  0  0  1  0  0  0  0  0  0
  -20.9830   52.2290   58.3560 C   0  0  0  0  0  2  0  0  0  0  0  0
  -21.1150   52.7070   59.7300 N   0  0  0  0  0  0  0  0  0  0  0  0
  -19.9630   52.9850   60.4580 C   0  0  0  0  0  0  0  0  0  0  0  0
  -18.8330   52.9870   59.9730 O   0  0  0  0  0  0  0  0  0  0  0  0
  -22.4810   53.0470   60.1380 C   0  0  0  0  0  2  0  0  0  0  0  0
  -18.9150   55.4230   61.4550 N   0  0  0  0  0  0  0  0  0  0  0  0
  -19.0010   56.7620   61.2230 C   0  0  0  0  0  0  0  0  0  0  0  0
  -18.1680   57.2840   60.4760 O   0  0  0  0  0  0  0  0  0  0  0  0
  -18.2420   54.9630   60.8350 H   0  0  0  0  0  0  0  0  0  0  0  0
  -20.1610   57.5720   61.7600 C   0  0  0  0  0  2  0  0  0  0  0  0
  -20.9940   58.1570   60.6180 C   0  0  0  0  0  2  0  0  0  0  0  0
  -21.9640   57.1100   60.1040 C   0  0  0  0  0  0  0  0  0  0  0  0
  -21.5250   56.1760   59.4280 O   0  0  0  0  0  0  0  0  0  0  0  0
  -23.3180   57.2590   60.3450 N   0  0  0  0  0  0  0  0  0  0  0  0
  -23.9620   58.3770   61.0470 C   0  0  0  0  0  2  0  0  0  0  0  0
  -25.1760   57.9200   61.8630 C   0  0  0  0  0  2  0  0  0  0  0  0
  -26.0890   57.1630   61.0560 O   0  0  0  0  0  0  0  0  0  0  0  0
  -25.4400   55.9830   60.5590 C   0  0  0  0  0  2  0  0  0  0  0  0
  -24.2500   56.3480   59.6710 C   0  0  0  0  0  2  0  0  0  0  0  0
  1  7  2  0  0  0  0
  1  2  1  0  0  0  0
  2  3  2  0  0  0  0
  3  5  1  0  0  0  0
  3  4  1  0  0  0  0
  6  5  2  0  0  0  0
  7  6  1  0  0  0  0
  9 17  1  0  0  0  0
  9  8  1  6  0  0  0
 10  9  1  0  0  0  0
 11 12  1  6  0  0  0
 11 13  1  0  0  0  0
 11 10  1  0  0  0  0
 13 14  1  0  0  0  0
 14 17  1  0  0  0  0
 14 15  1  0  0  0  0
 15  1  1  0  0  0  0
 16 15  2  0  0  0  0
 18  7  1  0  0  0  0
 19 18  1  0  0  0  0
 19 22  1  0  0  0  0
 20 19  2  0  0  0  0
 21 18  1  0  0  0  0
 23 22  1  0  0  0  0
 24 26  1  0  0  0  0
 24 23  1  0  0  0  0
 25 24  2  0  0  0  0
 26 27  1  0  0  0  0
 27 28  1  0  0  0  0
 29 28  1  0  0  0  0
 30 29  1  0  0  0  0
 31 26  1  0  0  0  0
 31 30  1  0  0  0  0
M  END
>  <minimizedAffinity>
-7.86050129

$$$$
