
 OpenBabel08162216383D

 31 33  0  0  1  0  0  0  0  0999 V2000
  -21.0770   57.8340   60.3560 C   0  0  0  0  0  0  0  0  0  0  0  0
  -19.6830   57.8400   60.4930 C   0  0  0  0  0  3  0  0  0  0  0  0
  -19.1160   57.4160   61.6890 C   0  0  0  0  0  0  0  0  0  0  0  0
  -17.2370   57.3970   61.8800 Br  0  0  0  0  0  0  0  0  0  0  0  0
  -19.9250   57.0160   62.7510 C   0  0  0  0  0  3  0  0  0  0  0  0
  -21.3190   57.0370   62.6190 C   0  0  0  0  0  3  0  0  0  0  0  0
  -21.9130   57.4340   61.4180 C   0  0  0  0  0  0  0  0  0  0  0  0
  -19.3340   54.5490   56.7910 C   0  0  0  0  0  1  0  0  0  0  0  0
  -19.8050   56.0000   56.8690 C   0  0  1  0  0  3  0  0  0  0  0  0
  -20.2650   56.5000   55.4890 C   0  0  0  0  0  2  0  0  0  0  0  0
  -20.8060   57.9360   55.5720 C   0  0  1  0  0  3  0  0  0  0  0  0
  -21.3250   58.3990   54.2140 C   0  0  0  0  0  1  0  0  0  0  0  0
  -21.9050   58.0420   56.6390 C   0  0  0  0  0  2  0  0  0  0  0  0
  -21.4350   57.5250   57.9220 N   0  0  0  0  0  0  0  0  0  0  0  0
  -21.6670   58.2710   59.0730 C   0  0  0  0  0  0  0  0  0  0  0  0
  -22.3690   59.2800   59.1020 O   0  0  0  0  0  0  0  0  0  0  0  0
  -20.9390   56.1470   57.8890 C   0  0  0  0  0  2  0  0  0  0  0  0
  -23.3100   57.5230   61.2580 N   0  0  0  0  0  0  0  0  0  0  0  0
  -24.2830   56.5810   61.1050 C   0  0  0  0  0  0  0  0  0  0  0  0
  -25.4620   56.9410   61.1590 O   0  0  0  0  0  0  0  0  0  0  0  0
  -23.6840   58.4750   61.2390 H   0  0  0  0  0  0  0  0  0  0  0  0
  -23.9340   55.1520   60.7510 C   0  0  0  0  0  2  0  0  0  0  0  0
  -23.7700   54.3010   62.0120 C   0  0  0  0  0  2  0  0  0  0  0  0
  -22.5400   53.4230   61.8800 C   0  0  0  0  0  0  0  0  0  0  0  0
  -21.7730   53.6160   60.9330 O   0  0  0  0  0  0  0  0  0  0  0  0
  -22.3410   52.3890   62.7760 N   0  0  0  0  0  0  0  0  0  0  0  0
  -23.2360   52.0030   63.8760 C   0  0  0  0  0  2  0  0  0  0  0  0
  -22.4590   51.4970   65.0960 C   0  0  0  0  0  2  0  0  0  0  0  0
  -21.5370   50.4590   64.7320 O   0  0  0  0  0  0  0  0  0  0  0  0
  -20.5760   50.9670   63.7950 C   0  0  0  0  0  2  0  0  0  0  0  0
  -21.2600   51.4340   62.5100 C   0  0  0  0  0  2  0  0  0  0  0  0
  1  2  2  0  0  0  0
  1  7  1  0  0  0  0
  2  3  1  0  0  0  0
  3  4  1  0  0  0  0
  3  5  2  0  0  0  0
  6  5  1  0  0  0  0
  7  6  2  0  0  0  0
  9  8  1  6  0  0  0
  9 17  1  0  0  0  0
 10 11  1  0  0  0  0
 10  9  1  0  0  0  0
 11 12  1  6  0  0  0
 11 13  1  0  0  0  0
 13 14  1  0  0  0  0
 14 15  1  0  0  0  0
 15 16  2  0  0  0  0
 15  1  1  0  0  0  0
 17 14  1  0  0  0  0
 18  7  1  0  0  0  0
 19 20  2  0  0  0  0
 19 18  1  0  0  0  0
 21 18  1  0  0  0  0
 22 19  1  0  0  0  0
 22 23  1  0  0  0  0
 24 23  1  0  0  0  0
 24 26  1  0  0  0  0
 25 24  2  0  0  0  0
 26 27  1  0  0  0  0
 27 28  1  0  0  0  0
 29 28  1  0  0  0  0
 30 29  1  0  0  0  0
 31 26  1  0  0  0  0
 31 30  1  0  0  0  0
M  END
>  <minimizedAffinity>
-7.69171667

$$$$
