
 OpenBabel08162216383D

 31 33  0  0  1  0  0  0  0  0999 V2000
  -20.1300   53.4200   61.7420 C   0  0  0  0  0  0  0  0  0  0  0  0
  -20.3970   52.3880   62.6510 C   0  0  0  0  0  3  0  0  0  0  0  0
  -20.5500   52.6940   63.9990 C   0  0  0  0  0  0  0  0  0  0  0  0
  -20.9330   51.3170   65.2340 Br  0  0  0  0  0  0  0  0  0  0  0  0
  -20.4110   54.0070   64.4450 C   0  0  0  0  0  3  0  0  0  0  0  0
  -20.1170   55.0310   63.5360 C   0  0  0  0  0  3  0  0  0  0  0  0
  -19.9850   54.7550   62.1730 C   0  0  0  0  0  0  0  0  0  0  0  0
  -24.8330   52.0980   60.1070 C   0  0  0  0  0  1  0  0  0  0  0  0
  -23.3790   51.7910   59.7580 C   0  0  1  0  0  3  0  0  0  0  0  0
  -23.2600   51.2830   58.3110 C   0  0  0  0  0  2  0  0  0  0  0  0
  -21.7910   51.0390   57.9290 C   0  0  1  0  0  3  0  0  0  0  0  0
  -21.6760   50.6030   56.4710 C   0  0  0  0  0  1  0  0  0  0  0  0
  -20.9440   52.2920   58.1910 C   0  0  0  0  0  2  0  0  0  0  0  0
  -21.1160   52.7560   59.5650 N   0  0  0  0  0  0  0  0  0  0  0  0
  -19.9870   53.0850   60.3090 C   0  0  0  0  0  0  0  0  0  0  0  0
  -18.8520   53.1430   59.8380 O   0  0  0  0  0  0  0  0  0  0  0  0
  -22.5000   53.0300   59.9580 C   0  0  0  0  0  2  0  0  0  0  0  0
  -19.6360   55.7420   61.2310 N   0  0  0  0  0  0  0  0  0  0  0  0
  -20.2700   56.8670   60.7960 C   0  0  0  0  0  0  0  0  0  0  0  0
  -19.6470   57.6520   60.0760 O   0  0  0  0  0  0  0  0  0  0  0  0
  -18.7380   55.5970   60.7620 H   0  0  0  0  0  0  0  0  0  0  0  0
  -21.7400   57.0900   61.0770 C   0  0  0  0  0  2  0  0  0  0  0  0
  -22.3450   58.0750   60.0750 C   0  0  0  0  0  2  0  0  0  0  0  0
  -22.6760   57.3510   58.7830 C   0  0  0  0  0  0  0  0  0  0  0  0
  -23.2860   56.2800   58.8430 O   0  0  0  0  0  0  0  0  0  0  0  0
  -22.2330   57.8680   57.5790 N   0  0  0  0  0  0  0  0  0  0  0  0
  -21.4160   59.0760   57.3950 C   0  0  0  0  0  2  0  0  0  0  0  0
  -21.7830   59.8260   56.1110 C   0  0  0  0  0  2  0  0  0  0  0  0
  -21.7580   58.9520   54.9730 O   0  0  0  0  0  0  0  0  0  0  0  0
  -22.7200   57.9000   55.1420 C   0  0  0  0  0  2  0  0  0  0  0  0
  -22.3900   57.0520   56.3710 C   0  0  0  0  0  2  0  0  0  0  0  0
  1  7  2  0  0  0  0
  1  2  1  0  0  0  0
  2  3  2  0  0  0  0
  3  5  1  0  0  0  0
  3  4  1  0  0  0  0
  6  5  2  0  0  0  0
  7  6  1  0  0  0  0
  9 17  1  0  0  0  0
  9  8  1  6  0  0  0
 10  9  1  0  0  0  0
 11 12  1  6  0  0  0
 11 13  1  0  0  0  0
 11 10  1  0  0  0  0
 13 14  1  0  0  0  0
 14 17  1  0  0  0  0
 14 15  1  0  0  0  0
 15  1  1  0  0  0  0
 16 15  2  0  0  0  0
 18  7  1  0  0  0  0
 19 22  1  0  0  0  0
 19 18  1  0  0  0  0
 20 19  2  0  0  0  0
 21 18  1  0  0  0  0
 23 22  1  0  0  0  0
 24 25  2  0  0  0  0
 24 23  1  0  0  0  0
 26 24  1  0  0  0  0
 27 26  1  0  0  0  0
 28 27  1  0  0  0  0
 29 30  1  0  0  0  0
 29 28  1  0  0  0  0
 30 31  1  0  0  0  0
 31 26  1  0  0  0  0
M  END
>  <minimizedAffinity>
-7.54441452

$$$$
