
 OpenBabel08162216383D

 31 33  0  0  1  0  0  0  0  0999 V2000
  -19.5580   53.8730   58.9980 C   0  0  0  0  0  0  0  0  0  0  0  0
  -19.6800   54.9260   58.0810 C   0  0  0  0  0  3  0  0  0  0  0  0
  -18.5570   55.3460   57.3780 C   0  0  0  0  0  0  0  0  0  0  0  0
  -18.7100   56.7490   56.1230 Br  0  0  0  0  0  0  0  0  0  0  0  0
  -17.3190   54.7470   57.6010 C   0  0  0  0  0  3  0  0  0  0  0  0
  -17.1960   53.7130   58.5380 C   0  0  0  0  0  3  0  0  0  0  0  0
  -18.3150   53.2540   59.2390 C   0  0  0  0  0  0  0  0  0  0  0  0
  -21.7690   50.2880   56.0320 C   0  0  0  0  0  1  0  0  0  0  0  0
  -22.1890   51.3130   57.0820 C   0  0  1  0  0  3  0  0  0  0  0  0
  -23.5320   50.9210   57.7220 C   0  0  0  0  0  2  0  0  0  0  0  0
  -23.9270   51.9100   58.8300 C   0  0  1  0  0  3  0  0  0  0  0  0
  -25.2240   51.4760   59.5060 C   0  0  0  0  0  1  0  0  0  0  0  0
  -22.7980   52.0540   59.8590 C   0  0  0  0  0  2  0  0  0  0  0  0
  -21.5370   52.3930   59.2030 N   0  0  0  0  0  0  0  0  0  0  0  0
  -20.7630   53.4230   59.7280 C   0  0  0  0  0  0  0  0  0  0  0  0
  -21.0040   53.9820   60.7960 O   0  0  0  0  0  0  0  0  0  0  0  0
  -21.1110   51.4560   58.1610 C   0  0  0  0  0  2  0  0  0  0  0  0
  -18.2300   52.2550   60.2280 N   0  0  0  0  0  0  0  0  0  0  0  0
  -18.1420   52.3070   61.5870 C   0  0  0  0  0  0  0  0  0  0  0  0
  -18.2550   51.2570   62.2240 O   0  0  0  0  0  0  0  0  0  0  0  0
  -18.2200   51.2950   59.8750 H   0  0  0  0  0  0  0  0  0  0  0  0
  -17.7860   53.5960   62.2950 C   0  0  0  0  0  2  0  0  0  0  0  0
  -18.0940   53.5010   63.7910 C   0  0  0  0  0  2  0  0  0  0  0  0
  -19.5200   53.9470   64.0490 C   0  0  0  0  0  0  0  0  0  0  0  0
  -19.8130   55.1320   63.8670 O   0  0  0  0  0  0  0  0  0  0  0  0
  -20.4400   53.0400   64.5430 N   0  0  0  0  0  0  0  0  0  0  0  0
  -20.1800   51.6360   64.8910 C   0  0  0  0  0  2  0  0  0  0  0  0
  -21.3840   50.7380   64.5880 C   0  0  0  0  0  2  0  0  0  0  0  0
  -22.5820   51.2530   65.1870 O   0  0  0  0  0  0  0  0  0  0  0  0
  -22.8750   52.5540   64.6540 C   0  0  0  0  0  2  0  0  0  0  0  0
  -21.7500   53.5400   64.9730 C   0  0  0  0  0  2  0  0  0  0  0  0
  1  7  1  0  0  0  0
  1 15  1  0  0  0  0
  2  1  2  0  0  0  0
  3  5  2  0  0  0  0
  3  2  1  0  0  0  0
  4  3  1  0  0  0  0
  5  6  1  0  0  0  0
  6  7  2  0  0  0  0
  7 18  1  0  0  0  0
  9  8  1  6  0  0  0
  9 10  1  0  0  0  0
  9 17  1  0  0  0  0
 10 11  1  0  0  0  0
 11 12  1  1  0  0  0
 11 13  1  0  0  0  0
 14 15  1  0  0  0  0
 14 13  1  0  0  0  0
 15 16  2  0  0  0  0
 17 14  1  0  0  0  0
 18 19  1  0  0  0  0
 19 20  2  0  0  0  0
 19 22  1  0  0  0  0
 21 18  1  0  0  0  0
 22 23  1  0  0  0  0
 23 24  1  0  0  0  0
 24 26  1  0  0  0  0
 25 24  2  0  0  0  0
 26 27  1  0  0  0  0
 26 31  1  0  0  0  0
 28 27  1  0  0  0  0
 28 29  1  0  0  0  0
 30 31  1  0  0  0  0
 30 29  1  0  0  0  0
M  END
>  <minimizedAffinity>
-7.51614666

$$$$
