
 OpenBabel08162216383D

 31 33  0  0  1  0  0  0  0  0999 V2000
  -23.1620   52.9230   61.3890 C   0  0  0  0  0  0  0  0  0  0  0  0
  -23.7050   54.1340   60.9390 C   0  0  0  0  0  3  0  0  0  0  0  0
  -23.8180   55.1980   61.8270 C   0  0  0  0  0  0  0  0  0  0  0  0
  -24.5270   56.8440   61.2290 Br  0  0  0  0  0  0  0  0  0  0  0  0
  -23.4210   55.0550   63.1550 C   0  0  0  0  0  3  0  0  0  0  0  0
  -22.9040   53.8350   63.6070 C   0  0  0  0  0  3  0  0  0  0  0  0
  -22.7560   52.7580   62.7290 C   0  0  0  0  0  0  0  0  0  0  0  0
  -19.0570   54.0090   58.4720 C   0  0  0  0  0  1  0  0  0  0  0  0
  -20.3680   53.2360   58.3500 C   0  0  1  0  0  3  0  0  0  0  0  0
  -20.2770   52.1800   57.2350 C   0  0  0  0  0  2  0  0  0  0  0  0
  -21.5690   51.3510   57.1510 C   0  0  1  0  0  3  0  0  0  0  0  0
  -21.4450   50.2600   56.0910 C   0  0  0  0  0  1  0  0  0  0  0  0
  -21.9160   50.7440   58.5180 C   0  0  0  0  0  2  0  0  0  0  0  0
  -21.9560   51.7780   59.5500 N   0  0  0  0  0  0  0  0  0  0  0  0
  -23.0320   51.8030   60.4320 C   0  0  0  0  0  0  0  0  0  0  0  0
  -23.8890   50.9240   60.4890 O   0  0  0  0  0  0  0  0  0  0  0  0
  -20.7310   52.5700   59.6800 C   0  0  0  0  0  2  0  0  0  0  0  0
  -22.2920   51.4960   63.1500 N   0  0  0  0  0  0  0  0  0  0  0  0
  -21.0570   51.0350   63.4930 C   0  0  0  0  0  0  0  0  0  0  0  0
  -20.9670   49.9110   63.9960 O   0  0  0  0  0  0  0  0  0  0  0  0
  -23.0080   50.7670   63.2050 H   0  0  0  0  0  0  0  0  0  0  0  0
  -19.8100   51.8210   63.1510 C   0  0  0  0  0  2  0  0  0  0  0  0
  -19.1500   52.3760   64.4150 C   0  0  0  0  0  2  0  0  0  0  0  0
  -18.8680   53.8560   64.2370 C   0  0  0  0  0  0  0  0  0  0  0  0
  -19.7130   54.6710   64.6200 O   0  0  0  0  0  0  0  0  0  0  0  0
  -17.7110   54.2570   63.5950 N   0  0  0  0  0  0  0  0  0  0  0  0
  -16.6880   53.3790   63.0110 C   0  0  0  0  0  2  0  0  0  0  0  0
  -15.2790   53.9640   63.1560 C   0  0  0  0  0  2  0  0  0  0  0  0
  -15.2200   55.3080   62.6540 O   0  0  0  0  0  0  0  0  0  0  0  0
  -16.1100   56.1490   63.4030 C   0  0  0  0  0  2  0  0  0  0  0  0
  -17.5570   55.6760   63.2580 C   0  0  0  0  0  2  0  0  0  0  0  0
  1  7  1  0  0  0  0
  2  1  2  0  0  0  0
  2  3  1  0  0  0  0
  3  5  2  0  0  0  0
  4  3  1  0  0  0  0
  5  6  1  0  0  0  0
  7 18  1  0  0  0  0
  7  6  2  0  0  0  0
  9  8  1  1  0  0  0
  9 17  1  0  0  0  0
 10  9  1  0  0  0  0
 11 12  1  6  0  0  0
 11 10  1  0  0  0  0
 11 13  1  0  0  0  0
 13 14  1  0  0  0  0
 14 17  1  0  0  0  0
 14 15  1  0  0  0  0
 15 16  2  0  0  0  0
 15  1  1  0  0  0  0
 18 21  1  0  0  0  0
 18 19  1  0  0  0  0
 19 20  2  0  0  0  0
 22 19  1  0  0  0  0
 22 23  1  0  0  0  0
 24 23  1  0  0  0  0
 24 25  2  0  0  0  0
 26 24  1  0  0  0  0
 27 28  1  0  0  0  0
 27 26  1  0  0  0  0
 29 28  1  0  0  0  0
 29 30  1  0  0  0  0
 31 30  1  0  0  0  0
 31 26  1  0  0  0  0
M  END
>  <minimizedAffinity>
-8.32014084

$$$$
