
 OpenBabel08162216383D

 31 33  0  0  1  0  0  0  0  0999 V2000
  -23.1700   52.9170   61.2890 C   0  0  0  0  0  0  0  0  0  0  0  0
  -23.7570   54.1150   60.8620 C   0  0  0  0  0  3  0  0  0  0  0  0
  -23.8760   55.1700   61.7600 C   0  0  0  0  0  0  0  0  0  0  0  0
  -24.6440   56.8000   61.1920 Br  0  0  0  0  0  0  0  0  0  0  0  0
  -23.4420   55.0290   63.0760 C   0  0  0  0  0  3  0  0  0  0  0  0
  -22.8810   53.8200   63.5060 C   0  0  0  0  0  3  0  0  0  0  0  0
  -22.7260   52.7530   62.6170 C   0  0  0  0  0  0  0  0  0  0  0  0
  -18.9830   53.9770   58.4820 C   0  0  0  0  0  1  0  0  0  0  0  0
  -20.3020   53.2260   58.3190 C   0  0  1  0  0  3  0  0  0  0  0  0
  -20.2010   52.1830   57.1930 C   0  0  0  0  0  2  0  0  0  0  0  0
  -21.5020   51.3740   57.0690 C   0  0  1  0  0  3  0  0  0  0  0  0
  -21.3700   50.2950   55.9980 C   0  0  0  0  0  1  0  0  0  0  0  0
  -21.8890   50.7560   58.4200 C   0  0  0  0  0  2  0  0  0  0  0  0
  -21.9390   51.7760   59.4640 N   0  0  0  0  0  0  0  0  0  0  0  0
  -23.0340   51.8070   60.3210 C   0  0  0  0  0  0  0  0  0  0  0  0
  -23.9050   50.9400   60.3470 O   0  0  0  0  0  0  0  0  0  0  0  0
  -20.7060   52.5490   59.6320 C   0  0  0  0  0  2  0  0  0  0  0  0
  -22.2170   51.5020   63.0170 N   0  0  0  0  0  0  0  0  0  0  0  0
  -20.9740   51.0890   63.3930 C   0  0  0  0  0  0  0  0  0  0  0  0
  -20.8490   49.9550   63.8640 O   0  0  0  0  0  0  0  0  0  0  0  0
  -22.8990   50.7390   63.0230 H   0  0  0  0  0  0  0  0  0  0  0  0
  -19.7550   51.9430   63.1220 C   0  0  0  0  0  2  0  0  0  0  0  0
  -19.3710   52.7550   64.3610 C   0  0  0  0  0  2  0  0  0  0  0  0
  -18.1860   53.6460   64.0420 C   0  0  0  0  0  0  0  0  0  0  0  0
  -17.0480   53.2100   64.2350 O   0  0  0  0  0  0  0  0  0  0  0  0
  -18.4030   54.9410   63.6090 N   0  0  0  0  0  0  0  0  0  0  0  0
  -19.7070   55.5980   63.4400 C   0  0  0  0  0  2  0  0  0  0  0  0
  -19.7120   56.5680   62.2540 C   0  0  0  0  0  2  0  0  0  0  0  0
  -18.6210   57.4970   62.3380 O   0  0  0  0  0  0  0  0  0  0  0  0
  -17.3720   56.7900   62.3060 C   0  0  0  0  0  2  0  0  0  0  0  0
  -17.2510   55.8430   63.5000 C   0  0  0  0  0  2  0  0  0  0  0  0
  1  7  1  0  0  0  0
  2  1  2  0  0  0  0
  2  3  1  0  0  0  0
  3  5  2  0  0  0  0
  4  3  1  0  0  0  0
  5  6  1  0  0  0  0
  7 18  1  0  0  0  0
  7  6  2  0  0  0  0
  9  8  1  1  0  0  0
  9 17  1  0  0  0  0
 10  9  1  0  0  0  0
 11 12  1  6  0  0  0
 11 10  1  0  0  0  0
 11 13  1  0  0  0  0
 13 14  1  0  0  0  0
 14 17  1  0  0  0  0
 14 15  1  0  0  0  0
 15 16  2  0  0  0  0
 15  1  1  0  0  0  0
 18 21  1  0  0  0  0
 18 19  1  0  0  0  0
 19 20  2  0  0  0  0
 22 19  1  0  0  0  0
 22 23  1  0  0  0  0
 24 25  2  0  0  0  0
 24 23  1  0  0  0  0
 26 24  1  0  0  0  0
 27 26  1  0  0  0  0
 28 29  1  0  0  0  0
 28 27  1  0  0  0  0
 30 29  1  0  0  0  0
 30 31  1  0  0  0  0
 31 26  1  0  0  0  0
M  END
>  <minimizedAffinity>
-8.56217384

$$$$

 OpenBabel08162216383D

 31 33  0  0  1  0  0  0  0  0999 V2000
  -23.1620   52.9230   61.3890 C   0  0  0  0  0  0  0  0  0  0  0  0
  -23.7050   54.1340   60.9390 C   0  0  0  0  0  3  0  0  0  0  0  0
  -23.8180   55.1980   61.8270 C   0  0  0  0  0  0  0  0  0  0  0  0
  -24.5270   56.8440   61.2290 Br  0  0  0  0  0  0  0  0  0  0  0  0
  -23.4210   55.0550   63.1550 C   0  0  0  0  0  3  0  0  0  0  0  0
  -22.9040   53.8350   63.6070 C   0  0  0  0  0  3  0  0  0  0  0  0
  -22.7560   52.7580   62.7290 C   0  0  0  0  0  0  0  0  0  0  0  0
  -19.0570   54.0090   58.4720 C   0  0  0  0  0  1  0  0  0  0  0  0
  -20.3680   53.2360   58.3500 C   0  0  1  0  0  3  0  0  0  0  0  0
  -20.2770   52.1800   57.2350 C   0  0  0  0  0  2  0  0  0  0  0  0
  -21.5690   51.3510   57.1510 C   0  0  1  0  0  3  0  0  0  0  0  0
  -21.4450   50.2600   56.0910 C   0  0  0  0  0  1  0  0  0  0  0  0
  -21.9160   50.7440   58.5180 C   0  0  0  0  0  2  0  0  0  0  0  0
  -21.9560   51.7780   59.5500 N   0  0  0  0  0  0  0  0  0  0  0  0
  -23.0320   51.8030   60.4320 C   0  0  0  0  0  0  0  0  0  0  0  0
  -23.8890   50.9240   60.4890 O   0  0  0  0  0  0  0  0  0  0  0  0
  -20.7310   52.5700   59.6800 C   0  0  0  0  0  2  0  0  0  0  0  0
  -22.2920   51.4960   63.1500 N   0  0  0  0  0  0  0  0  0  0  0  0
  -21.0570   51.0350   63.4930 C   0  0  0  0  0  0  0  0  0  0  0  0
  -20.9670   49.9110   63.9960 O   0  0  0  0  0  0  0  0  0  0  0  0
  -23.0080   50.7670   63.2050 H   0  0  0  0  0  0  0  0  0  0  0  0
  -19.8100   51.8210   63.1510 C   0  0  0  0  0  2  0  0  0  0  0  0
  -19.1500   52.3760   64.4150 C   0  0  0  0  0  2  0  0  0  0  0  0
  -18.8680   53.8560   64.2370 C   0  0  0  0  0  0  0  0  0  0  0  0
  -19.7130   54.6710   64.6200 O   0  0  0  0  0  0  0  0  0  0  0  0
  -17.7110   54.2570   63.5950 N   0  0  0  0  0  0  0  0  0  0  0  0
  -16.6880   53.3790   63.0110 C   0  0  0  0  0  2  0  0  0  0  0  0
  -15.2790   53.9640   63.1560 C   0  0  0  0  0  2  0  0  0  0  0  0
  -15.2200   55.3080   62.6540 O   0  0  0  0  0  0  0  0  0  0  0  0
  -16.1100   56.1490   63.4030 C   0  0  0  0  0  2  0  0  0  0  0  0
  -17.5570   55.6760   63.2580 C   0  0  0  0  0  2  0  0  0  0  0  0
  1  7  1  0  0  0  0
  2  1  2  0  0  0  0
  2  3  1  0  0  0  0
  3  5  2  0  0  0  0
  4  3  1  0  0  0  0
  5  6  1  0  0  0  0
  7 18  1  0  0  0  0
  7  6  2  0  0  0  0
  9  8  1  1  0  0  0
  9 17  1  0  0  0  0
 10  9  1  0  0  0  0
 11 12  1  6  0  0  0
 11 10  1  0  0  0  0
 11 13  1  0  0  0  0
 13 14  1  0  0  0  0
 14 17  1  0  0  0  0
 14 15  1  0  0  0  0
 15 16  2  0  0  0  0
 15  1  1  0  0  0  0
 18 21  1  0  0  0  0
 18 19  1  0  0  0  0
 19 20  2  0  0  0  0
 22 19  1  0  0  0  0
 22 23  1  0  0  0  0
 24 23  1  0  0  0  0
 24 25  2  0  0  0  0
 26 24  1  0  0  0  0
 27 28  1  0  0  0  0
 27 26  1  0  0  0  0
 29 28  1  0  0  0  0
 29 30  1  0  0  0  0
 31 30  1  0  0  0  0
 31 26  1  0  0  0  0
M  END
>  <minimizedAffinity>
-8.32014084

$$$$

 OpenBabel08162216383D

 31 33  0  0  1  0  0  0  0  0999 V2000
  -20.0390   57.6870   55.5710 C   0  0  0  0  0  0  0  0  0  0  0  0
  -19.4760   56.4260   55.8120 C   0  0  0  0  0  3  0  0  0  0  0  0
  -19.4820   55.9160   57.1050 C   0  0  0  0  0  0  0  0  0  0  0  0
  -18.7470   54.2090   57.4410 Br  0  0  0  0  0  0  0  0  0  0  0  0
  -20.0160   56.6600   58.1550 C   0  0  0  0  0  3  0  0  0  0  0  0
  -20.5530   57.9310   57.9150 C   0  0  0  0  0  3  0  0  0  0  0  0
  -20.5840   58.4560   56.6200 C   0  0  0  0  0  0  0  0  0  0  0  0
  -15.3550   59.6820   54.7920 C   0  0  0  0  0  1  0  0  0  0  0  0
  -16.7800   59.8940   54.2880 C   0  0  1  0  0  3  0  0  0  0  0  0
  -16.7770   60.5930   52.9180 C   0  0  0  0  0  2  0  0  0  0  0  0
  -18.2050   60.7470   52.3710 C   0  0  1  0  0  3  0  0  0  0  0  0
  -18.1890   61.3770   50.9810 C   0  0  0  0  0  1  0  0  0  0  0  0
  -18.9280   59.3930   52.3470 C   0  0  0  0  0  2  0  0  0  0  0  0
  -18.8760   58.7520   53.6590 N   0  0  0  0  0  0  0  0  0  0  0  0
  -20.0420   58.2120   54.1890 C   0  0  0  0  0  0  0  0  0  0  0  0
  -21.0950   58.1130   53.5620 O   0  0  0  0  0  0  0  0  0  0  0  0
  -17.5280   58.5600   54.2000 C   0  0  0  0  0  2  0  0  0  0  0  0
  -21.0640   59.7500   56.3390 N   0  0  0  0  0  0  0  0  0  0  0  0
  -22.3200   60.2740   56.2730 C   0  0  0  0  0  0  0  0  0  0  0  0
  -22.4420   61.4970   56.1730 O   0  0  0  0  0  0  0  0  0  0  0  0
  -20.3420   60.4440   56.1300 H   0  0  0  0  0  0  0  0  0  0  0  0
  -23.5350   59.3750   56.1930 C   0  0  0  0  0  2  0  0  0  0  0  0
  -24.2010   59.4770   54.8190 C   0  0  0  0  0  2  0  0  0  0  0  0
  -25.6950   59.6710   54.9880 C   0  0  0  0  0  0  0  0  0  0  0  0
  -26.1310   59.9800   56.1010 O   0  0  0  0  0  0  0  0  0  0  0  0
  -26.5390   59.4350   53.9180 N   0  0  0  0  0  0  0  0  0  0  0  0
  -26.1440   58.9680   52.5820 C   0  0  0  0  0  2  0  0  0  0  0  0
  -27.0170   59.5780   51.4800 C   0  0  0  0  0  2  0  0  0  0  0  0
  -28.4120   59.3820   51.7540 O   0  0  0  0  0  0  0  0  0  0  0  0
  -28.7650   60.0310   52.9850 C   0  0  0  0  0  2  0  0  0  0  0  0
  -27.9860   59.4340   54.1580 C   0  0  0  0  0  2  0  0  0  0  0  0
  1  2  2  0  0  0  0
  1  7  1  0  0  0  0
  2  3  1  0  0  0  0
  3  4  1  0  0  0  0
  3  5  2  0  0  0  0
  6  5  1  0  0  0  0
  7  6  2  0  0  0  0
  9  8  1  6  0  0  0
 10  9  1  0  0  0  0
 11 12  1  6  0  0  0
 11 10  1  0  0  0  0
 13 11  1  0  0  0  0
 13 14  1  0  0  0  0
 14 15  1  0  0  0  0
 14 17  1  0  0  0  0
 15  1  1  0  0  0  0
 16 15  2  0  0  0  0
 17  9  1  0  0  0  0
 18  7  1  0  0  0  0
 19 18  1  0  0  0  0
 20 19  2  0  0  0  0
 21 18  1  0  0  0  0
 22 19  1  0  0  0  0
 23 24  1  0  0  0  0
 23 22  1  0  0  0  0
 24 25  2  0  0  0  0
 26 31  1  0  0  0  0
 26 24  1  0  0  0  0
 27 26  1  0  0  0  0
 28 29  1  0  0  0  0
 28 27  1  0  0  0  0
 29 30  1  0  0  0  0
 30 31  1  0  0  0  0
M  END
>  <minimizedAffinity>
-7.86990452

$$$$

 OpenBabel08162216383D

 31 33  0  0  1  0  0  0  0  0999 V2000
  -20.0730   53.3340   61.8910 C   0  0  0  0  0  0  0  0  0  0  0  0
  -20.6660   52.4120   62.7640 C   0  0  0  0  0  3  0  0  0  0  0  0
  -20.7880   52.7350   64.1110 C   0  0  0  0  0  0  0  0  0  0  0  0
  -21.6060   51.5130   65.2960 Br  0  0  0  0  0  0  0  0  0  0  0  0
  -20.3030   53.9500   64.5930 C   0  0  0  0  0  3  0  0  0  0  0  0
  -19.6860   54.8560   63.7210 C   0  0  0  0  0  3  0  0  0  0  0  0
  -19.5740   54.5660   62.3580 C   0  0  0  0  0  0  0  0  0  0  0  0
  -24.8520   52.2270   60.3210 C   0  0  0  0  0  1  0  0  0  0  0  0
  -23.4190   51.8500   59.9560 C   0  0  1  0  0  3  0  0  0  0  0  0
  -23.3420   51.3310   58.5100 C   0  0  0  0  0  2  0  0  0  0  0  0
  -21.8920   51.0160   58.1110 C   0  0  1  0  0  3  0  0  0  0  0  0
  -21.8150   50.5680   56.6540 C   0  0  0  0  0  1  0  0  0  0  0  0
  -20.9830   52.2290   58.3560 C   0  0  0  0  0  2  0  0  0  0  0  0
  -21.1150   52.7070   59.7300 N   0  0  0  0  0  0  0  0  0  0  0  0
  -19.9630   52.9850   60.4580 C   0  0  0  0  0  0  0  0  0  0  0  0
  -18.8330   52.9870   59.9730 O   0  0  0  0  0  0  0  0  0  0  0  0
  -22.4810   53.0470   60.1380 C   0  0  0  0  0  2  0  0  0  0  0  0
  -18.9150   55.4230   61.4550 N   0  0  0  0  0  0  0  0  0  0  0  0
  -19.0010   56.7620   61.2230 C   0  0  0  0  0  0  0  0  0  0  0  0
  -18.1680   57.2840   60.4760 O   0  0  0  0  0  0  0  0  0  0  0  0
  -18.2420   54.9630   60.8350 H   0  0  0  0  0  0  0  0  0  0  0  0
  -20.1610   57.5720   61.7600 C   0  0  0  0  0  2  0  0  0  0  0  0
  -20.9940   58.1570   60.6180 C   0  0  0  0  0  2  0  0  0  0  0  0
  -21.9640   57.1100   60.1040 C   0  0  0  0  0  0  0  0  0  0  0  0
  -21.5250   56.1760   59.4280 O   0  0  0  0  0  0  0  0  0  0  0  0
  -23.3180   57.2590   60.3450 N   0  0  0  0  0  0  0  0  0  0  0  0
  -23.9620   58.3770   61.0470 C   0  0  0  0  0  2  0  0  0  0  0  0
  -25.1760   57.9200   61.8630 C   0  0  0  0  0  2  0  0  0  0  0  0
  -26.0890   57.1630   61.0560 O   0  0  0  0  0  0  0  0  0  0  0  0
  -25.4400   55.9830   60.5590 C   0  0  0  0  0  2  0  0  0  0  0  0
  -24.2500   56.3480   59.6710 C   0  0  0  0  0  2  0  0  0  0  0  0
  1  7  2  0  0  0  0
  1  2  1  0  0  0  0
  2  3  2  0  0  0  0
  3  5  1  0  0  0  0
  3  4  1  0  0  0  0
  6  5  2  0  0  0  0
  7  6  1  0  0  0  0
  9 17  1  0  0  0  0
  9  8  1  6  0  0  0
 10  9  1  0  0  0  0
 11 12  1  6  0  0  0
 11 13  1  0  0  0  0
 11 10  1  0  0  0  0
 13 14  1  0  0  0  0
 14 17  1  0  0  0  0
 14 15  1  0  0  0  0
 15  1  1  0  0  0  0
 16 15  2  0  0  0  0
 18  7  1  0  0  0  0
 19 18  1  0  0  0  0
 19 22  1  0  0  0  0
 20 19  2  0  0  0  0
 21 18  1  0  0  0  0
 23 22  1  0  0  0  0
 24 26  1  0  0  0  0
 24 23  1  0  0  0  0
 25 24  2  0  0  0  0
 26 27  1  0  0  0  0
 27 28  1  0  0  0  0
 29 28  1  0  0  0  0
 30 29  1  0  0  0  0
 31 26  1  0  0  0  0
 31 30  1  0  0  0  0
M  END
>  <minimizedAffinity>
-7.86050129

$$$$

 OpenBabel08162216383D

 31 33  0  0  1  0  0  0  0  0999 V2000
  -17.1940   58.5940   54.3970 C   0  0  0  0  0  0  0  0  0  0  0  0
  -15.9730   58.3080   55.0220 C   0  0  0  0  0  3  0  0  0  0  0  0
  -14.9130   59.1950   54.8770 C   0  0  0  0  0  0  0  0  0  0  0  0
  -13.2670   58.8350   55.7320 Br  0  0  0  0  0  0  0  0  0  0  0  0
  -15.0520   60.3420   54.0970 C   0  0  0  0  0  3  0  0  0  0  0  0
  -16.2660   60.6100   53.4520 C   0  0  0  0  0  3  0  0  0  0  0  0
  -17.3560   59.7480   53.6030 C   0  0  0  0  0  0  0  0  0  0  0  0
  -17.6960   57.8980   59.4760 C   0  0  0  0  0  1  0  0  0  0  0  0
  -17.9690   57.1240   58.1890 C   0  0  1  0  0  3  0  0  0  0  0  0
  -19.0270   56.0320   58.4220 C   0  0  0  0  0  2  0  0  0  0  0  0
  -19.3590   55.2940   57.1160 C   0  0  1  0  0  3  0  0  0  0  0  0
  -20.4590   54.2610   57.3410 C   0  0  0  0  0  1  0  0  0  0  0  0
  -19.7630   56.2880   56.0170 C   0  0  0  0  0  2  0  0  0  0  0  0
  -18.7460   57.3240   55.8550 N   0  0  0  0  0  0  0  0  0  0  0  0
  -18.3200   57.6520   54.5720 C   0  0  0  0  0  0  0  0  0  0  0  0
  -18.8450   57.2210   53.5470 O   0  0  0  0  0  0  0  0  0  0  0  0
  -18.4240   58.0710   57.0740 C   0  0  0  0  0  2  0  0  0  0  0  0
  -18.5770   59.9480   52.9310 N   0  0  0  0  0  0  0  0  0  0  0  0
  -19.6170   60.8020   53.1420 C   0  0  0  0  0  0  0  0  0  0  0  0
  -20.4990   60.8790   52.2820 O   0  0  0  0  0  0  0  0  0  0  0  0
  -18.7370   59.3320   52.1300 H   0  0  0  0  0  0  0  0  0  0  0  0
  -19.7610   61.5450   54.4520 C   0  0  0  0  0  2  0  0  0  0  0  0
  -20.3560   60.6390   55.5320 C   0  0  0  0  0  2  0  0  0  0  0  0
  -21.8600   60.8280   55.5880 C   0  0  0  0  0  0  0  0  0  0  0  0
  -22.3140   61.7670   56.2480 O   0  0  0  0  0  0  0  0  0  0  0  0
  -22.6860   59.9150   54.9600 N   0  0  0  0  0  0  0  0  0  0  0  0
  -22.2630   58.7100   54.2340 C   0  0  0  0  0  2  0  0  0  0  0  0
  -23.1670   58.4160   53.0330 C   0  0  0  0  0  2  0  0  0  0  0  0
  -24.5500   58.3820   53.4190 O   0  0  0  0  0  0  0  0  0  0  0  0
  -24.9410   59.6600   53.9450 C   0  0  0  0  0  2  0  0  0  0  0  0
  -24.1310   60.0060   55.1950 C   0  0  0  0  0  2  0  0  0  0  0  0
  1 15  1  0  0  0  0
  1  2  1  0  0  0  0
  3  2  2  0  0  0  0
  3  4  1  0  0  0  0
  5  3  1  0  0  0  0
  6  7  1  0  0  0  0
  6  5  2  0  0  0  0
  7  1  2  0  0  0  0
  9 10  1  0  0  0  0
  9  8  1  1  0  0  0
 11 12  1  1  0  0  0
 11 10  1  0  0  0  0
 13 11  1  0  0  0  0
 14 13  1  0  0  0  0
 14 17  1  0  0  0  0
 15 14  1  0  0  0  0
 16 15  2  0  0  0  0
 17  9  1  0  0  0  0
 18 19  1  0  0  0  0
 18  7  1  0  0  0  0
 19 22  1  0  0  0  0
 20 19  2  0  0  0  0
 21 18  1  0  0  0  0
 22 23  1  0  0  0  0
 23 24  1  0  0  0  0
 24 25  2  0  0  0  0
 26 31  1  0  0  0  0
 26 24  1  0  0  0  0
 27 26  1  0  0  0  0
 28 29  1  0  0  0  0
 28 27  1  0  0  0  0
 29 30  1  0  0  0  0
 30 31  1  0  0  0  0
M  END
>  <minimizedAffinity>
-7.78844833

$$$$

 OpenBabel08162216383D

 31 33  0  0  1  0  0  0  0  0999 V2000
  -31.7680   60.6830   55.0300 C   0  0  0  0  0  0  0  0  0  0  0  0
  -32.7650   61.0950   54.1350 C   0  0  0  0  0  3  0  0  0  0  0  0
  -33.7640   61.9530   54.5810 C   0  0  0  0  0  0  0  0  0  0  0  0
  -35.1020   62.5350   53.3810 Br  0  0  0  0  0  0  0  0  0  0  0  0
  -33.7900   62.3770   55.9080 C   0  0  0  0  0  3  0  0  0  0  0  0
  -32.8070   61.9420   56.8050 C   0  0  0  0  0  3  0  0  0  0  0  0
  -31.7770   61.1000   56.3760 C   0  0  0  0  0  0  0  0  0  0  0  0
  -28.5590   63.6350   52.2860 C   0  0  0  0  0  1  0  0  0  0  0  0
  -29.0090   62.1770   52.3280 C   0  0  1  0  0  3  0  0  0  0  0  0
  -27.9640   61.2640   51.6650 C   0  0  0  0  0  2  0  0  0  0  0  0
  -28.3750   59.7860   51.7650 C   0  0  1  0  0  3  0  0  0  0  0  0
  -27.3010   58.8820   51.1690 C   0  0  0  0  0  1  0  0  0  0  0  0
  -28.6650   59.3990   53.2220 C   0  0  0  0  0  2  0  0  0  0  0  0
  -29.6360   60.3130   53.8200 N   0  0  0  0  0  0  0  0  0  0  0  0
  -30.7020   59.7840   54.5390 C   0  0  0  0  0  0  0  0  0  0  0  0
  -30.8070   58.5930   54.8260 O   0  0  0  0  0  0  0  0  0  0  0  0
  -29.2640   61.7290   53.7710 C   0  0  0  0  0  2  0  0  0  0  0  0
  -30.7990   60.5940   57.2540 N   0  0  0  0  0  0  0  0  0  0  0  0
  -30.8780   59.8540   58.3950 C   0  0  0  0  0  0  0  0  0  0  0  0
  -29.8350   59.3990   58.8740 O   0  0  0  0  0  0  0  0  0  0  0  0
  -29.8340   60.8270   57.0080 H   0  0  0  0  0  0  0  0  0  0  0  0
  -32.1900   59.6980   59.1330 C   0  0  0  0  0  2  0  0  0  0  0  0
  -32.2970   60.7080   60.2770 C   0  0  0  0  0  2  0  0  0  0  0  0
  -32.5340   59.9760   61.5850 C   0  0  0  0  0  0  0  0  0  0  0  0
  -33.0440   58.8530   61.5510 O   0  0  0  0  0  0  0  0  0  0  0  0
  -32.2400   60.6040   62.7810 N   0  0  0  0  0  0  0  0  0  0  0  0
  -31.7270   61.9710   62.9460 C   0  0  0  0  0  2  0  0  0  0  0  0
  -30.7610   62.0820   64.1300 C   0  0  0  0  0  2  0  0  0  0  0  0
  -31.3460   61.5540   65.3290 O   0  0  0  0  0  0  0  0  0  0  0  0
  -31.6470   60.1610   65.1540 C   0  0  0  0  0  2  0  0  0  0  0  0
  -32.6630   59.9600   64.0290 C   0  0  0  0  0  2  0  0  0  0  0  0
  1  7  1  0  0  0  0
  2  3  1  0  0  0  0
  2  1  2  0  0  0  0
  3  5  2  0  0  0  0
  4  3  1  0  0  0  0
  5  6  1  0  0  0  0
  7  6  2  0  0  0  0
  7 18  1  0  0  0  0
  9  8  1  1  0  0  0
  9 17  1  0  0  0  0
 10 11  1  0  0  0  0
 10  9  1  0  0  0  0
 11 12  1  1  0  0  0
 11 13  1  0  0  0  0
 13 14  1  0  0  0  0
 14 15  1  0  0  0  0
 15 16  2  0  0  0  0
 15  1  1  0  0  0  0
 17 14  1  0  0  0  0
 18 19  1  0  0  0  0
 19 20  2  0  0  0  0
 19 22  1  0  0  0  0
 21 18  1  0  0  0  0
 22 23  1  0  0  0  0
 23 24  1  0  0  0  0
 24 26  1  0  0  0  0
 25 24  2  0  0  0  0
 26 27  1  0  0  0  0
 26 31  1  0  0  0  0
 27 28  1  0  0  0  0
 28 29  1  0  0  0  0
 30 29  1  0  0  0  0
 31 30  1  0  0  0  0
M  END
>  <minimizedAffinity>
-7.73378611

$$$$

 OpenBabel08162216383D

 31 33  0  0  1  0  0  0  0  0999 V2000
  -21.0770   57.8340   60.3560 C   0  0  0  0  0  0  0  0  0  0  0  0
  -19.6830   57.8400   60.4930 C   0  0  0  0  0  3  0  0  0  0  0  0
  -19.1160   57.4160   61.6890 C   0  0  0  0  0  0  0  0  0  0  0  0
  -17.2370   57.3970   61.8800 Br  0  0  0  0  0  0  0  0  0  0  0  0
  -19.9250   57.0160   62.7510 C   0  0  0  0  0  3  0  0  0  0  0  0
  -21.3190   57.0370   62.6190 C   0  0  0  0  0  3  0  0  0  0  0  0
  -21.9130   57.4340   61.4180 C   0  0  0  0  0  0  0  0  0  0  0  0
  -19.3340   54.5490   56.7910 C   0  0  0  0  0  1  0  0  0  0  0  0
  -19.8050   56.0000   56.8690 C   0  0  1  0  0  3  0  0  0  0  0  0
  -20.2650   56.5000   55.4890 C   0  0  0  0  0  2  0  0  0  0  0  0
  -20.8060   57.9360   55.5720 C   0  0  1  0  0  3  0  0  0  0  0  0
  -21.3250   58.3990   54.2140 C   0  0  0  0  0  1  0  0  0  0  0  0
  -21.9050   58.0420   56.6390 C   0  0  0  0  0  2  0  0  0  0  0  0
  -21.4350   57.5250   57.9220 N   0  0  0  0  0  0  0  0  0  0  0  0
  -21.6670   58.2710   59.0730 C   0  0  0  0  0  0  0  0  0  0  0  0
  -22.3690   59.2800   59.1020 O   0  0  0  0  0  0  0  0  0  0  0  0
  -20.9390   56.1470   57.8890 C   0  0  0  0  0  2  0  0  0  0  0  0
  -23.3100   57.5230   61.2580 N   0  0  0  0  0  0  0  0  0  0  0  0
  -24.2830   56.5810   61.1050 C   0  0  0  0  0  0  0  0  0  0  0  0
  -25.4620   56.9410   61.1590 O   0  0  0  0  0  0  0  0  0  0  0  0
  -23.6840   58.4750   61.2390 H   0  0  0  0  0  0  0  0  0  0  0  0
  -23.9340   55.1520   60.7510 C   0  0  0  0  0  2  0  0  0  0  0  0
  -23.7700   54.3010   62.0120 C   0  0  0  0  0  2  0  0  0  0  0  0
  -22.5400   53.4230   61.8800 C   0  0  0  0  0  0  0  0  0  0  0  0
  -21.7730   53.6160   60.9330 O   0  0  0  0  0  0  0  0  0  0  0  0
  -22.3410   52.3890   62.7760 N   0  0  0  0  0  0  0  0  0  0  0  0
  -23.2360   52.0030   63.8760 C   0  0  0  0  0  2  0  0  0  0  0  0
  -22.4590   51.4970   65.0960 C   0  0  0  0  0  2  0  0  0  0  0  0
  -21.5370   50.4590   64.7320 O   0  0  0  0  0  0  0  0  0  0  0  0
  -20.5760   50.9670   63.7950 C   0  0  0  0  0  2  0  0  0  0  0  0
  -21.2600   51.4340   62.5100 C   0  0  0  0  0  2  0  0  0  0  0  0
  1  2  2  0  0  0  0
  1  7  1  0  0  0  0
  2  3  1  0  0  0  0
  3  4  1  0  0  0  0
  3  5  2  0  0  0  0
  6  5  1  0  0  0  0
  7  6  2  0  0  0  0
  9  8  1  6  0  0  0
  9 17  1  0  0  0  0
 10 11  1  0  0  0  0
 10  9  1  0  0  0  0
 11 12  1  6  0  0  0
 11 13  1  0  0  0  0
 13 14  1  0  0  0  0
 14 15  1  0  0  0  0
 15 16  2  0  0  0  0
 15  1  1  0  0  0  0
 17 14  1  0  0  0  0
 18  7  1  0  0  0  0
 19 20  2  0  0  0  0
 19 18  1  0  0  0  0
 21 18  1  0  0  0  0
 22 19  1  0  0  0  0
 22 23  1  0  0  0  0
 24 23  1  0  0  0  0
 24 26  1  0  0  0  0
 25 24  2  0  0  0  0
 26 27  1  0  0  0  0
 27 28  1  0  0  0  0
 29 28  1  0  0  0  0
 30 29  1  0  0  0  0
 31 26  1  0  0  0  0
 31 30  1  0  0  0  0
M  END
>  <minimizedAffinity>
-7.69171667

$$$$

 OpenBabel08162216383D

 31 33  0  0  1  0  0  0  0  0999 V2000
  -20.1300   53.4200   61.7420 C   0  0  0  0  0  0  0  0  0  0  0  0
  -20.3970   52.3880   62.6510 C   0  0  0  0  0  3  0  0  0  0  0  0
  -20.5500   52.6940   63.9990 C   0  0  0  0  0  0  0  0  0  0  0  0
  -20.9330   51.3170   65.2340 Br  0  0  0  0  0  0  0  0  0  0  0  0
  -20.4110   54.0070   64.4450 C   0  0  0  0  0  3  0  0  0  0  0  0
  -20.1170   55.0310   63.5360 C   0  0  0  0  0  3  0  0  0  0  0  0
  -19.9850   54.7550   62.1730 C   0  0  0  0  0  0  0  0  0  0  0  0
  -24.8330   52.0980   60.1070 C   0  0  0  0  0  1  0  0  0  0  0  0
  -23.3790   51.7910   59.7580 C   0  0  1  0  0  3  0  0  0  0  0  0
  -23.2600   51.2830   58.3110 C   0  0  0  0  0  2  0  0  0  0  0  0
  -21.7910   51.0390   57.9290 C   0  0  1  0  0  3  0  0  0  0  0  0
  -21.6760   50.6030   56.4710 C   0  0  0  0  0  1  0  0  0  0  0  0
  -20.9440   52.2920   58.1910 C   0  0  0  0  0  2  0  0  0  0  0  0
  -21.1160   52.7560   59.5650 N   0  0  0  0  0  0  0  0  0  0  0  0
  -19.9870   53.0850   60.3090 C   0  0  0  0  0  0  0  0  0  0  0  0
  -18.8520   53.1430   59.8380 O   0  0  0  0  0  0  0  0  0  0  0  0
  -22.5000   53.0300   59.9580 C   0  0  0  0  0  2  0  0  0  0  0  0
  -19.6360   55.7420   61.2310 N   0  0  0  0  0  0  0  0  0  0  0  0
  -20.2700   56.8670   60.7960 C   0  0  0  0  0  0  0  0  0  0  0  0
  -19.6470   57.6520   60.0760 O   0  0  0  0  0  0  0  0  0  0  0  0
  -18.7380   55.5970   60.7620 H   0  0  0  0  0  0  0  0  0  0  0  0
  -21.7400   57.0900   61.0770 C   0  0  0  0  0  2  0  0  0  0  0  0
  -22.3450   58.0750   60.0750 C   0  0  0  0  0  2  0  0  0  0  0  0
  -22.6760   57.3510   58.7830 C   0  0  0  0  0  0  0  0  0  0  0  0
  -23.2860   56.2800   58.8430 O   0  0  0  0  0  0  0  0  0  0  0  0
  -22.2330   57.8680   57.5790 N   0  0  0  0  0  0  0  0  0  0  0  0
  -21.4160   59.0760   57.3950 C   0  0  0  0  0  2  0  0  0  0  0  0
  -21.7830   59.8260   56.1110 C   0  0  0  0  0  2  0  0  0  0  0  0
  -21.7580   58.9520   54.9730 O   0  0  0  0  0  0  0  0  0  0  0  0
  -22.7200   57.9000   55.1420 C   0  0  0  0  0  2  0  0  0  0  0  0
  -22.3900   57.0520   56.3710 C   0  0  0  0  0  2  0  0  0  0  0  0
  1  7  2  0  0  0  0
  1  2  1  0  0  0  0
  2  3  2  0  0  0  0
  3  5  1  0  0  0  0
  3  4  1  0  0  0  0
  6  5  2  0  0  0  0
  7  6  1  0  0  0  0
  9 17  1  0  0  0  0
  9  8  1  6  0  0  0
 10  9  1  0  0  0  0
 11 12  1  6  0  0  0
 11 13  1  0  0  0  0
 11 10  1  0  0  0  0
 13 14  1  0  0  0  0
 14 17  1  0  0  0  0
 14 15  1  0  0  0  0
 15  1  1  0  0  0  0
 16 15  2  0  0  0  0
 18  7  1  0  0  0  0
 19 22  1  0  0  0  0
 19 18  1  0  0  0  0
 20 19  2  0  0  0  0
 21 18  1  0  0  0  0
 23 22  1  0  0  0  0
 24 25  2  0  0  0  0
 24 23  1  0  0  0  0
 26 24  1  0  0  0  0
 27 26  1  0  0  0  0
 28 27  1  0  0  0  0
 29 30  1  0  0  0  0
 29 28  1  0  0  0  0
 30 31  1  0  0  0  0
 31 26  1  0  0  0  0
M  END
>  <minimizedAffinity>
-7.54441452

$$$$

 OpenBabel08162216383D

 31 33  0  0  1  0  0  0  0  0999 V2000
  -19.5580   53.8730   58.9980 C   0  0  0  0  0  0  0  0  0  0  0  0
  -19.6800   54.9260   58.0810 C   0  0  0  0  0  3  0  0  0  0  0  0
  -18.5570   55.3460   57.3780 C   0  0  0  0  0  0  0  0  0  0  0  0
  -18.7100   56.7490   56.1230 Br  0  0  0  0  0  0  0  0  0  0  0  0
  -17.3190   54.7470   57.6010 C   0  0  0  0  0  3  0  0  0  0  0  0
  -17.1960   53.7130   58.5380 C   0  0  0  0  0  3  0  0  0  0  0  0
  -18.3150   53.2540   59.2390 C   0  0  0  0  0  0  0  0  0  0  0  0
  -21.7690   50.2880   56.0320 C   0  0  0  0  0  1  0  0  0  0  0  0
  -22.1890   51.3130   57.0820 C   0  0  1  0  0  3  0  0  0  0  0  0
  -23.5320   50.9210   57.7220 C   0  0  0  0  0  2  0  0  0  0  0  0
  -23.9270   51.9100   58.8300 C   0  0  1  0  0  3  0  0  0  0  0  0
  -25.2240   51.4760   59.5060 C   0  0  0  0  0  1  0  0  0  0  0  0
  -22.7980   52.0540   59.8590 C   0  0  0  0  0  2  0  0  0  0  0  0
  -21.5370   52.3930   59.2030 N   0  0  0  0  0  0  0  0  0  0  0  0
  -20.7630   53.4230   59.7280 C   0  0  0  0  0  0  0  0  0  0  0  0
  -21.0040   53.9820   60.7960 O   0  0  0  0  0  0  0  0  0  0  0  0
  -21.1110   51.4560   58.1610 C   0  0  0  0  0  2  0  0  0  0  0  0
  -18.2300   52.2550   60.2280 N   0  0  0  0  0  0  0  0  0  0  0  0
  -18.1420   52.3070   61.5870 C   0  0  0  0  0  0  0  0  0  0  0  0
  -18.2550   51.2570   62.2240 O   0  0  0  0  0  0  0  0  0  0  0  0
  -18.2200   51.2950   59.8750 H   0  0  0  0  0  0  0  0  0  0  0  0
  -17.7860   53.5960   62.2950 C   0  0  0  0  0  2  0  0  0  0  0  0
  -18.0940   53.5010   63.7910 C   0  0  0  0  0  2  0  0  0  0  0  0
  -19.5200   53.9470   64.0490 C   0  0  0  0  0  0  0  0  0  0  0  0
  -19.8130   55.1320   63.8670 O   0  0  0  0  0  0  0  0  0  0  0  0
  -20.4400   53.0400   64.5430 N   0  0  0  0  0  0  0  0  0  0  0  0
  -20.1800   51.6360   64.8910 C   0  0  0  0  0  2  0  0  0  0  0  0
  -21.3840   50.7380   64.5880 C   0  0  0  0  0  2  0  0  0  0  0  0
  -22.5820   51.2530   65.1870 O   0  0  0  0  0  0  0  0  0  0  0  0
  -22.8750   52.5540   64.6540 C   0  0  0  0  0  2  0  0  0  0  0  0
  -21.7500   53.5400   64.9730 C   0  0  0  0  0  2  0  0  0  0  0  0
  1  7  1  0  0  0  0
  1 15  1  0  0  0  0
  2  1  2  0  0  0  0
  3  5  2  0  0  0  0
  3  2  1  0  0  0  0
  4  3  1  0  0  0  0
  5  6  1  0  0  0  0
  6  7  2  0  0  0  0
  7 18  1  0  0  0  0
  9  8  1  6  0  0  0
  9 10  1  0  0  0  0
  9 17  1  0  0  0  0
 10 11  1  0  0  0  0
 11 12  1  1  0  0  0
 11 13  1  0  0  0  0
 14 15  1  0  0  0  0
 14 13  1  0  0  0  0
 15 16  2  0  0  0  0
 17 14  1  0  0  0  0
 18 19  1  0  0  0  0
 19 20  2  0  0  0  0
 19 22  1  0  0  0  0
 21 18  1  0  0  0  0
 22 23  1  0  0  0  0
 23 24  1  0  0  0  0
 24 26  1  0  0  0  0
 25 24  2  0  0  0  0
 26 27  1  0  0  0  0
 26 31  1  0  0  0  0
 28 27  1  0  0  0  0
 28 29  1  0  0  0  0
 30 31  1  0  0  0  0
 30 29  1  0  0  0  0
M  END
>  <minimizedAffinity>
-7.51614666

$$$$

 OpenBabel08162216383D

 31 33  0  0  1  0  0  0  0  0999 V2000
  -22.4000   54.2360   60.0630 C   0  0  0  0  0  0  0  0  0  0  0  0
  -21.7070   53.1520   59.5100 C   0  0  0  0  0  3  0  0  0  0  0  0
  -21.0020   53.3300   58.3250 C   0  0  0  0  0  0  0  0  0  0  0  0
  -20.0430   51.8830   57.5800 Br  0  0  0  0  0  0  0  0  0  0  0  0
  -21.0070   54.5650   57.6790 C   0  0  0  0  0  3  0  0  0  0  0  0
  -21.7250   55.6380   58.2210 C   0  0  0  0  0  3  0  0  0  0  0  0
  -22.4190   55.4930   59.4250 C   0  0  0  0  0  0  0  0  0  0  0  0
  -18.9080   54.7280   63.8170 C   0  0  0  0  0  1  0  0  0  0  0  0
  -20.2300   54.0020   63.5810 C   0  0  1  0  0  3  0  0  0  0  0  0
  -20.9080   53.6530   64.9170 C   0  0  0  0  0  2  0  0  0  0  0  0
  -22.2730   52.9850   64.6880 C   0  0  1  0  0  3  0  0  0  0  0  0
  -22.9700   52.7050   66.0160 C   0  0  0  0  0  1  0  0  0  0  0  0
  -23.1570   53.8520   63.7810 C   0  0  0  0  0  2  0  0  0  0  0  0
  -22.4610   54.1870   62.5410 N   0  0  0  0  0  0  0  0  0  0  0  0
  -23.1330   54.0380   61.3320 C   0  0  0  0  0  0  0  0  0  0  0  0
  -24.3300   53.7740   61.2450 O   0  0  0  0  0  0  0  0  0  0  0  0
  -21.1680   54.8530   62.7190 C   0  0  0  0  0  2  0  0  0  0  0  0
  -23.1980   56.5280   59.9790 N   0  0  0  0  0  0  0  0  0  0  0  0
  -22.8880   57.7770   60.4270 C   0  0  0  0  0  0  0  0  0  0  0  0
  -23.8110   58.5460   60.7080 O   0  0  0  0  0  0  0  0  0  0  0  0
  -24.1930   56.3140   60.0830 H   0  0  0  0  0  0  0  0  0  0  0  0
  -21.4530   58.1720   60.6990 C   0  0  0  0  0  2  0  0  0  0  0  0
  -21.0430   59.3660   59.8350 C   0  0  0  0  0  2  0  0  0  0  0  0
  -20.1980   58.8880   58.6690 C   0  0  0  0  0  0  0  0  0  0  0  0
  -19.0160   58.5990   58.8730 O   0  0  0  0  0  0  0  0  0  0  0  0
  -20.7460   58.8510   57.4000 N   0  0  0  0  0  0  0  0  0  0  0  0
  -22.1050   59.2660   57.0230 C   0  0  0  0  0  2  0  0  0  0  0  0
  -22.6800   58.3950   55.9020 C   0  0  0  0  0  2  0  0  0  0  0  0
  -21.7830   58.3270   54.7830 O   0  0  0  0  0  0  0  0  0  0  0  0
  -20.5410   57.7340   55.1890 C   0  0  0  0  0  2  0  0  0  0  0  0
  -19.8580   58.5800   56.2650 C   0  0  0  0  0  2  0  0  0  0  0  0
  1 15  1  0  0  0  0
  2  1  1  0  0  0  0
  3  2  2  0  0  0  0
  4  3  1  0  0  0  0
  5  6  2  0  0  0  0
  5  3  1  0  0  0  0
  6  7  1  0  0  0  0
  7 18  1  0  0  0  0
  7  1  2  0  0  0  0
  9  8  1  1  0  0  0
  9 10  1  0  0  0  0
 11 10  1  0  0  0  0
 11 12  1  1  0  0  0
 13 11  1  0  0  0  0
 14 17  1  0  0  0  0
 14 13  1  0  0  0  0
 15 14  1  0  0  0  0
 16 15  2  0  0  0  0
 17  9  1  0  0  0  0
 18 21  1  0  0  0  0
 18 19  1  0  0  0  0
 19 22  1  0  0  0  0
 19 20  2  0  0  0  0
 23 22  1  0  0  0  0
 24 25  2  0  0  0  0
 24 23  1  0  0  0  0
 26 24  1  0  0  0  0
 27 26  1  0  0  0  0
 28 27  1  0  0  0  0
 29 30  1  0  0  0  0
 29 28  1  0  0  0  0
 30 31  1  0  0  0  0
 31 26  1  0  0  0  0
M  END
>  <minimizedAffinity>
-7.50328827

$$$$
