
 OpenBabel09122222393D

 33 35  0  0  1  0  0  0  0  0999 V2000
    2.6000   -3.8010    5.5430 C   0  0  2  0  0  0  0  0  0  0  0  0
    2.3600   -2.4780    6.3160 C   0  0  0  0  0  2  0  0  0  0  0  0
    2.6410   -2.8160    7.7810 C   0  0  1  0  0  3  0  0  0  0  0  0
    3.8230   -3.7820    7.7040 C   0  0  1  0  0  3  0  0  0  0  0  0
    3.6150   -4.5040    6.4230 N   0  0  0  0  0  0  0  0  0  0  0  0
    4.2550   -5.7110    6.2250 C   0  0  0  0  0  0  0  0  0  0  0  0
    4.7660   -6.3820    7.1250 O   0  0  0  0  0  0  0  0  0  0  0  0
    5.2210   -3.1580    7.7960 C   0  0  0  0  0  0  0  0  0  0  0  0
    6.0430   -3.4510    8.8850 C   0  0  0  0  0  3  0  0  0  0  0  0
    7.3100   -2.8750    8.9680 C   0  0  0  0  0  3  0  0  0  0  0  0
    7.7350   -2.0220    7.9610 C   0  0  0  0  0  3  0  0  0  0  0  0
    6.8740   -1.7890    6.9050 C   0  0  0  0  0  3  0  0  0  0  0  0
    5.6540   -2.3470    6.7970 N   0  0  0  0  0  0  0  0  0  0  0  0
    4.3540   -6.2700    4.8670 C   0  0  0  0  0  0  0  0  0  0  0  0
    5.0930   -5.5910    3.8950 C   0  0  0  0  0  3  0  0  0  0  0  0
    5.1400   -6.0870    2.5900 C   0  0  0  0  0  3  0  0  0  0  0  0
    4.4350   -7.2530    2.2440 C   0  0  0  0  0  0  0  0  0  0  0  0
    3.6550   -7.8930    3.2210 C   0  0  0  0  0  3  0  0  0  0  0  0
    3.6020   -7.3930    4.5230 C   0  0  0  0  0  3  0  0  0  0  0  0
    4.4880   -7.7820    0.8380 C   0  0  0  0  0  0  0  0  0  0  0  0
    4.4370   -6.7780   -0.0890 F   0  0  0  0  0  0  0  0  0  0  0  0
    5.6380   -8.4640    0.5570 F   0  0  0  0  0  0  0  0  0  0  0  0
    3.4690   -8.6250    0.5090 F   0  0  0  0  0  0  0  0  0  0  0  0
    3.0530   -3.3860    4.0590 C   0  0  0  0  0  0  0  0  0  0  0  0
    2.5920   -4.1030    3.1100 O   0  0  0  0  0  0  0  0  0  0  0  0
    3.8330   -2.3990    3.9310 O   0  0  0  0  0  1  0  0  0  0  0  0
    2.7300   -1.7320    8.8450 C   0  0  0  0  0  0  0  0  0  0  0  0
    1.6150   -1.2340    9.1940 O   0  0  0  0  0  1  0  0  0  0  0  0
    3.8860   -1.3510    9.1790 O   0  0  0  0  0  0  0  0  0  0  0  0
    1.3090   -4.6800    5.3860 C   0  0  0  0  0  2  0  0  0  0  0  0
    0.9830   -6.0130    7.5350 C   0  0  0  0  0  1  0  0  0  0  0  0
    1.2470   -6.0860    6.0260 C   0  0  0  0  0  3  0  0  0  0  0  0
    0.1200   -6.9080    5.3860 C   0  0  0  0  0  1  0  0  0  0  0  0
  1 30  1  6  0  0  0
  1  2  1  0  0  0  0
  1  5  1  0  0  0  0
  2  3  1  0  0  0  0
  3 27  1  1  0  0  0
  4  3  1  0  0  0  0
  4  8  1  6  0  0  0
  5  4  1  0  0  0  0
  6  5  1  0  0  0  0
  6  7  2  0  0  0  0
  8  9  1  0  0  0  0
  9 10  2  0  0  0  0
 11 10  1  0  0  0  0
 12 11  2  0  0  0  0
 13 12  1  0  0  0  0
 13  8  2  0  0  0  0
 14  6  1  0  0  0  0
 15 14  2  0  0  0  0
 16 15  1  0  0  0  0
 17 16  2  0  0  0  0
 17 18  1  0  0  0  0
 18 19  2  0  0  0  0
 19 14  1  0  0  0  0
 20 17  1  0  0  0  0
 21 20  1  0  0  0  0
 22 20  1  0  0  0  0
 23 20  1  0  0  0  0
 24  1  1  0  0  0  0
 25 24  2  0  0  0  0
 26 24  1  0  0  0  0
 27 29  2  0  0  0  0
 27 28  1  0  0  0  0
 30 32  1  0  0  0  0
 32 31  1  0  0  0  0
 33 32  1  0  0  0  0
M  END
>  <minimizedAffinity>
-2.12728381

$$$$
