
 OpenBabel09122222393D

 33 35  0  0  1  0  0  0  0  0999 V2000
    4.0790   -3.6940    5.1340 C   0  0  2  0  0  0  0  0  0  0  0  0
    4.0070   -3.0630    6.5500 C   0  0  0  0  0  2  0  0  0  0  0  0
    2.7040   -3.5880    7.1530 C   0  0  1  0  0  3  0  0  0  0  0  0
    2.6300   -5.0280    6.6460 C   0  0  1  0  0  3  0  0  0  0  0  0
    3.2900   -4.9750    5.3170 N   0  0  0  0  0  0  0  0  0  0  0  0
    3.0500   -5.9900    4.4120 C   0  0  0  0  0  0  0  0  0  0  0  0
    2.1200   -6.7940    4.5010 O   0  0  0  0  0  0  0  0  0  0  0  0
    3.2400   -6.1040    7.5530 C   0  0  0  0  0  0  0  0  0  0  0  0
    2.5120   -7.2560    7.8510 C   0  0  0  0  0  3  0  0  0  0  0  0
    3.0680   -8.2270    8.6830 C   0  0  0  0  0  3  0  0  0  0  0  0
    4.3410   -8.0330    9.1970 C   0  0  0  0  0  3  0  0  0  0  0  0
    5.0090   -6.8740    8.8470 C   0  0  0  0  0  3  0  0  0  0  0  0
    4.4980   -5.9320    8.0340 N   0  0  0  0  0  0  0  0  0  0  0  0
    3.9380   -6.1550    3.2490 C   0  0  0  0  0  0  0  0  0  0  0  0
    4.9680   -7.0970    3.2980 C   0  0  0  0  0  3  0  0  0  0  0  0
    5.8500   -7.2140    2.2210 C   0  0  0  0  0  3  0  0  0  0  0  0
    5.7180   -6.3800    1.0960 C   0  0  0  0  0  0  0  0  0  0  0  0
    4.7090   -5.4040    1.0870 C   0  0  0  0  0  3  0  0  0  0  0  0
    3.8340   -5.2800    2.1670 C   0  0  0  0  0  3  0  0  0  0  0  0
    6.6700   -6.5100   -0.0600 C   0  0  0  0  0  0  0  0  0  0  0  0
    6.0580   -7.0160   -1.1740 F   0  0  0  0  0  0  0  0  0  0  0  0
    7.2030   -5.3180   -0.4610 F   0  0  0  0  0  0  0  0  0  0  0  0
    7.7330   -7.3310    0.1690 F   0  0  0  0  0  0  0  0  0  0  0  0
    5.6390   -3.8190    4.7700 C   0  0  0  0  0  0  0  0  0  0  0  0
    6.3990   -4.2530    5.6960 O   0  0  0  0  0  1  0  0  0  0  0  0
    6.0070   -3.4740    3.6100 O   0  0  0  0  0  0  0  0  0  0  0  0
    2.3650   -3.3770    8.6210 C   0  0  0  0  0  0  0  0  0  0  0  0
    1.4840   -4.1660    9.0850 O   0  0  0  0  0  0  0  0  0  0  0  0
    2.8850   -2.3770    9.1910 O   0  0  0  0  0  1  0  0  0  0  0  0
    3.4310   -2.8050    4.0160 C   0  0  0  0  0  2  0  0  0  0  0  0
    1.9010   -1.4200    5.5120 C   0  0  0  0  0  1  0  0  0  0  0  0
    2.0110   -2.2260    4.2130 C   0  0  0  0  0  3  0  0  0  0  0  0
    1.6530   -1.2970    3.0450 C   0  0  0  0  0  1  0  0  0  0  0  0
  1 30  1  6  0  0  0
  1  5  1  0  0  0  0
  1  2  1  0  0  0  0
  2  3  1  0  0  0  0
  3 27  1  1  0  0  0
  4  3  1  0  0  0  0
  4  8  1  1  0  0  0
  5  4  1  0  0  0  0
  6  7  2  0  0  0  0
  6  5  1  0  0  0  0
  8  9  2  0  0  0  0
  8 13  1  0  0  0  0
  9 10  1  0  0  0  0
 10 11  2  0  0  0  0
 12 11  1  0  0  0  0
 13 12  2  0  0  0  0
 14 15  1  0  0  0  0
 14  6  1  0  0  0  0
 16 15  2  0  0  0  0
 17 16  1  0  0  0  0
 18 17  2  0  0  0  0
 18 19  1  0  0  0  0
 19 14  2  0  0  0  0
 20 23  1  0  0  0  0
 20 17  1  0  0  0  0
 21 20  1  0  0  0  0
 22 20  1  0  0  0  0
 24  1  1  0  0  0  0
 24 25  1  0  0  0  0
 26 24  2  0  0  0  0
 27 28  2  0  0  0  0
 27 29  1  0  0  0  0
 30 32  1  0  0  0  0
 32 31  1  0  0  0  0
 33 32  1  0  0  0  0
M  END
>  <minimizedAffinity>
-2.41596246

$$$$
