
 OpenBabel09122222393D

 33 35  0  0  1  0  0  0  0  0999 V2000
    2.7700   -4.4770    5.0100 C   0  0  2  0  0  0  0  0  0  0  0  0
    2.5010   -3.3810    6.0750 C   0  0  0  0  0  2  0  0  0  0  0  0
    2.5430   -4.1130    7.4180 C   0  0  1  0  0  3  0  0  0  0  0  0
    3.6620   -5.1380    7.2310 C   0  0  1  0  0  3  0  0  0  0  0  0
    3.6000   -5.4790    5.7870 N   0  0  0  0  0  0  0  0  0  0  0  0
    4.1860   -6.6510    5.3520 C   0  0  0  0  0  0  0  0  0  0  0  0
    4.5170   -7.5790    6.0940 O   0  0  0  0  0  0  0  0  0  0  0  0
    5.0670   -4.7000    7.6610 C   0  0  0  0  0  0  0  0  0  0  0  0
    5.6480   -5.2540    8.8040 C   0  0  0  0  0  3  0  0  0  0  0  0
    6.9220   -4.8460    9.1960 C   0  0  0  0  0  3  0  0  0  0  0  0
    7.5950   -3.8990    8.4390 C   0  0  0  0  0  3  0  0  0  0  0  0
    6.9640   -3.4050    7.3130 C   0  0  0  0  0  3  0  0  0  0  0  0
    5.7420   -3.7950    6.9070 N   0  0  0  0  0  0  0  0  0  0  0  0
    4.4480   -6.8470    3.9170 C   0  0  0  0  0  0  0  0  0  0  0  0
    5.4400   -6.0890    3.2890 C   0  0  0  0  0  3  0  0  0  0  0  0
    5.6510   -6.2290    1.9160 C   0  0  0  0  0  3  0  0  0  0  0  0
    4.8620   -7.1130    1.1580 C   0  0  0  0  0  0  0  0  0  0  0  0
    3.8350   -7.8260    1.7970 C   0  0  0  0  0  3  0  0  0  0  0  0
    3.6180   -7.6810    3.1680 C   0  0  0  0  0  3  0  0  0  0  0  0
    5.0920   -7.2580   -0.3200 C   0  0  0  0  0  0  0  0  0  0  0  0
    3.9220   -7.2260   -1.0270 F   0  0  0  0  0  0  0  0  0  0  0  0
    5.8530   -6.2560   -0.8530 F   0  0  0  0  0  0  0  0  0  0  0  0
    5.7020   -8.4200   -0.6890 F   0  0  0  0  0  0  0  0  0  0  0  0
    3.4610   -3.7380    3.7610 C   0  0  0  0  0  0  0  0  0  0  0  0
    4.1600   -2.7090    4.0340 O   0  0  0  0  0  1  0  0  0  0  0  0
    3.2590   -4.2130    2.6060 O   0  0  0  0  0  0  0  0  0  0  0  0
    2.5410   -3.3560    8.7370 C   0  0  0  0  0  0  0  0  0  0  0  0
    1.3880   -3.0860    9.1970 O   0  0  0  0  0  1  0  0  0  0  0  0
    3.6590   -2.9640    9.1740 O   0  0  0  0  0  0  0  0  0  0  0  0
    1.4650   -5.1530    4.4610 C   0  0  0  0  0  2  0  0  0  0  0  0
   -0.9040   -5.8870    5.0530 C   0  0  0  0  0  1  0  0  0  0  0  0
    0.5850   -6.0120    5.3980 C   0  0  0  0  0  3  0  0  0  0  0  0
    0.9770   -7.4910    5.2800 C   0  0  0  0  0  1  0  0  0  0  0  0
  1 30  1  6  0  0  0
  1  5  1  0  0  0  0
  1  2  1  0  0  0  0
  2  3  1  0  0  0  0
  3 27  1  1  0  0  0
  4  3  1  0  0  0  0
  4  8  1  6  0  0  0
  5  4  1  0  0  0  0
  6  5  1  0  0  0  0
  6  7  2  0  0  0  0
  8  9  1  0  0  0  0
  9 10  2  0  0  0  0
 11 10  1  0  0  0  0
 12 11  2  0  0  0  0
 13 12  1  0  0  0  0
 13  8  2  0  0  0  0
 14  6  1  0  0  0  0
 15 14  1  0  0  0  0
 16 15  2  0  0  0  0
 17 18  2  0  0  0  0
 17 16  1  0  0  0  0
 18 19  1  0  0  0  0
 19 14  2  0  0  0  0
 20 17  1  0  0  0  0
 21 20  1  0  0  0  0
 22 20  1  0  0  0  0
 23 20  1  0  0  0  0
 24 25  1  0  0  0  0
 24  1  1  0  0  0  0
 26 24  2  0  0  0  0
 27 29  2  0  0  0  0
 27 28  1  0  0  0  0
 30 32  1  0  0  0  0
 31 32  1  0  0  0  0
 33 32  1  0  0  0  0
M  END
>  <minimizedAffinity>
-2.8382051

$$$$
