
 OpenBabel08152211443D

 38 41  0  0  1  0  0  0  0  0999 V2000
   48.4400   12.8140   57.7460 C   0  0  1  0  0  3  0  0  0  0  0  0
   49.6790   12.7750   58.2940 C   0  0  0  0  0  0  0  0  0  0  0  0
   50.8400   13.1240   57.3840 C   0  0  0  0  0  2  0  0  0  0  0  0
   50.5160   14.1250   56.2490 C   0  0  1  0  0  0  0  0  0  0  0  0
   49.2380   13.8200   55.6540 O   0  0  0  0  0  0  0  0  0  0  0  0
   48.1980   13.2810   56.3410 C   0  0  0  0  0  0  0  0  0  0  0  0
   47.1120   13.1780   55.7730 O   0  0  0  0  0  0  0  0  0  0  0  0
   50.1020   12.4540   59.4410 O   0  0  0  0  0  0  0  0  0  0  0  0
   50.5390   15.6050   56.7540 C   0  0  0  0  0  3  0  0  0  0  0  0
   51.7900   15.9970   57.5520 C   0  0  0  0  0  2  0  0  0  0  0  0
   51.8080   17.5240   57.5770 C   0  0  0  0  0  2  0  0  0  0  0  0
   50.8440   17.9750   56.4880 C   0  0  0  0  0  2  0  0  0  0  0  0
   50.5120   16.7150   55.6970 C   0  0  0  0  0  2  0  0  0  0  0  0
   46.9940   12.3150   58.6130 S   0  0  0  0  0  0  0  0  0  0  0  0
   48.1860   10.7240   63.4340 C   0  0  0  0  0  1  0  0  0  0  0  0
   48.2340   10.3620   61.9780 C   0  0  0  0  0  0  0  0  0  0  0  0
   47.6590   11.2350   61.0430 C   0  0  0  0  0  3  0  0  0  0  0  0
   47.6090   10.9710   59.6540 C   0  0  0  0  0  0  0  0  0  0  0  0
   48.1640    9.7570   59.1730 C   0  0  0  0  0  0  0  0  0  0  0  0
   48.8090    8.9330   60.1430 C   0  0  0  0  0  3  0  0  0  0  0  0
   48.8820    9.2260   61.5120 C   0  0  0  0  0  0  0  0  0  0  0  0
   48.1970    9.2620   57.6980 C   0  0  0  0  0  0  0  0  0  0  0  0
   46.8010    8.6970   57.3560 C   0  0  0  0  0  1  0  0  0  0  0  0
   48.4980   10.4270   56.7070 C   0  0  0  0  0  1  0  0  0  0  0  0
   49.2520    8.1900   57.3450 C   0  0  0  0  0  1  0  0  0  0  0  0
   49.5000    8.3230   62.3700 N   0  0  0  0  0  0  0  0  0  0  0  0
   50.0690    7.5880   61.9750 H   0  0  0  0  0  0  0  0  0  0  0  0
   49.6900    8.6040   63.3210 H   0  0  0  0  0  0  0  0  0  0  0  0
   51.6250   13.9320   55.1410 C   0  0  0  0  0  2  0  0  0  0  0  0
   52.4090   12.6050   55.1170 C   0  0  0  0  0  2  0  0  0  0  0  0
   51.6960   11.4520   54.4550 C   0  0  0  0  0  0  0  0  0  0  0  0
   51.8300   10.1480   54.9480 C   0  0  0  0  0  3  0  0  0  0  0  0
   51.1690    9.0840   54.3290 C   0  0  0  0  0  3  0  0  0  0  0  0
   50.3800    9.3250   53.2070 C   0  0  0  0  0  0  0  0  0  0  0  0
   50.2440   10.6090   52.6970 C   0  0  0  0  0  3  0  0  0  0  0  0
   50.9010   11.6720   53.3190 C   0  0  0  0  0  3  0  0  0  0  0  0
   49.7170    8.3150   52.5750 O   0  0  0  0  0  0  0  0  0  0  0  0
   49.8680    7.4980   53.0780 H   0  0  0  0  0  0  0  0  0  0  0  0
  1  2  1  0  0  0  0
  1 14  1  6  0  0  0
  2  8  2  0  0  0  0
  3  2  1  0  0  0  0
  4 29  1  6  0  0  0
  4  9  1  0  0  0  0
  4  3  1  0  0  0  0
  5  4  1  0  0  0  0
  5  6  1  0  0  0  0
  6  1  1  0  0  0  0
  7  6  2  0  0  0  0
  9 10  1  0  0  0  0
 10 11  1  0  0  0  0
 12 11  1  0  0  0  0
 13 12  1  0  0  0  0
 13  9  1  0  0  0  0
 14 18  1  0  0  0  0
 16 15  1  0  0  0  0
 17 16  2  0  0  0  0
 18 17  1  0  0  0  0
 19 18  2  0  0  0  0
 19 20  1  0  0  0  0
 20 21  2  0  0  0  0
 21 16  1  0  0  0  0
 21 26  1  0  0  0  0
 22 19  1  0  0  0  0
 23 22  1  0  0  0  0
 24 22  1  0  0  0  0
 25 22  1  0  0  0  0
 26 28  1  0  0  0  0
 27 26  1  0  0  0  0
 30 29  1  0  0  0  0
 31 32  1  0  0  0  0
 31 30  1  0  0  0  0
 33 32  2  0  0  0  0
 34 33  1  0  0  0  0
 35 34  2  0  0  0  0
 35 36  1  0  0  0  0
 36 31  2  0  0  0  0
 37 38  1  0  0  0  0
 37 34  1  0  0  0  0
M  END
>  <minimizedAffinity>
-1.71146941

$$$$
