
 OpenBabel08152211443D

 38 41  0  0  1  0  0  0  0  0999 V2000
   50.1940   12.1560   57.1560 C   0  0  1  0  0  3  0  0  0  0  0  0
   49.1640   12.4900   56.3400 C   0  0  0  0  0  0  0  0  0  0  0  0
   49.3280   12.1740   54.8670 C   0  0  0  0  0  2  0  0  0  0  0  0
   50.2140   10.9470   54.5460 C   0  0  1  0  0  0  0  0  0  0  0  0
   51.3830   10.9310   55.3910 O   0  0  0  0  0  0  0  0  0  0  0  0
   51.3990   11.4120   56.6620 C   0  0  0  0  0  0  0  0  0  0  0  0
   52.4090   11.2350   57.3410 O   0  0  0  0  0  0  0  0  0  0  0  0
   48.0630   13.0760   56.5430 O   0  0  0  0  0  0  0  0  0  0  0  0
   49.4240    9.6040   54.6910 C   0  0  0  0  0  3  0  0  0  0  0  0
   48.9780    9.2670   56.1200 C   0  0  0  0  0  2  0  0  0  0  0  0
   47.9040    8.1900   55.9790 C   0  0  0  0  0  2  0  0  0  0  0  0
   47.4660    8.2200   54.5210 C   0  0  0  0  0  2  0  0  0  0  0  0
   48.0950    9.4790   53.9380 C   0  0  0  0  0  2  0  0  0  0  0  0
   50.2330   12.5640   58.8650 S   0  0  0  0  0  0  0  0  0  0  0  0
   45.7390    9.9810   59.4400 C   0  0  0  0  0  1  0  0  0  0  0  0
   47.1660   10.0730   59.8960 C   0  0  0  0  0  0  0  0  0  0  0  0
   48.0110   11.0190   59.2970 C   0  0  0  0  0  3  0  0  0  0  0  0
   49.3820   11.1590   59.6200 C   0  0  0  0  0  0  0  0  0  0  0  0
   49.9410   10.2970   60.5970 C   0  0  0  0  0  0  0  0  0  0  0  0
   49.0340    9.4030   61.2400 C   0  0  0  0  0  3  0  0  0  0  0  0
   47.6690    9.3000   60.9340 C   0  0  0  0  0  0  0  0  0  0  0  0
   51.4200   10.2660   61.0830 C   0  0  0  0  0  0  0  0  0  0  0  0
   51.4480    9.5920   62.4710 C   0  0  0  0  0  1  0  0  0  0  0  0
   52.3210    9.4300   60.1260 C   0  0  0  0  0  1  0  0  0  0  0  0
   52.1470   11.6240   61.1900 C   0  0  0  0  0  1  0  0  0  0  0  0
   46.8910    8.3580   61.5990 N   0  0  0  0  0  0  0  0  0  0  0  0
   47.2620    7.9200   62.4300 H   0  0  0  0  0  0  0  0  0  0  0  0
   45.8880    8.3920   61.4940 H   0  0  0  0  0  0  0  0  0  0  0  0
   50.6990   11.1120   53.0520 C   0  0  0  0  0  2  0  0  0  0  0  0
   51.3720    9.9080   52.3670 C   0  0  0  0  0  2  0  0  0  0  0  0
   50.8100    9.5440   51.0140 C   0  0  0  0  0  0  0  0  0  0  0  0
   51.2400   10.2070   49.8580 C   0  0  0  0  0  3  0  0  0  0  0  0
   50.7140    9.8670   48.6090 C   0  0  0  0  0  3  0  0  0  0  0  0
   49.7470    8.8690   48.5190 C   0  0  0  0  0  0  0  0  0  0  0  0
   49.3000    8.2090   49.6560 C   0  0  0  0  0  3  0  0  0  0  0  0
   49.8300    8.5460   50.9020 C   0  0  0  0  0  3  0  0  0  0  0  0
   49.2090    8.5060   47.3190 O   0  0  0  0  0  0  0  0  0  0  0  0
   49.6590    9.0150   46.6250 H   0  0  0  0  0  0  0  0  0  0  0  0
  1 14  1  6  0  0  0
  2  8  2  0  0  0  0
  2  1  1  0  0  0  0
  3  2  1  0  0  0  0
  4 29  1  6  0  0  0
  4  9  1  0  0  0  0
  4  3  1  0  0  0  0
  4  5  1  0  0  0  0
  5  6  1  0  0  0  0
  6  1  1  0  0  0  0
  6  7  2  0  0  0  0
  9 10  1  0  0  0  0
 11 10  1  0  0  0  0
 12 11  1  0  0  0  0
 13 12  1  0  0  0  0
 13  9  1  0  0  0  0
 14 18  1  0  0  0  0
 15 16  1  0  0  0  0
 16 21  1  0  0  0  0
 17 18  1  0  0  0  0
 17 16  2  0  0  0  0
 18 19  2  0  0  0  0
 19 22  1  0  0  0  0
 19 20  1  0  0  0  0
 21 20  2  0  0  0  0
 21 26  1  0  0  0  0
 22 25  1  0  0  0  0
 22 23  1  0  0  0  0
 24 22  1  0  0  0  0
 26 27  1  0  0  0  0
 28 26  1  0  0  0  0
 30 29  1  0  0  0  0
 31 30  1  0  0  0  0
 32 31  2  0  0  0  0
 33 32  1  0  0  0  0
 34 33  2  0  0  0  0
 34 35  1  0  0  0  0
 35 36  2  0  0  0  0
 36 31  1  0  0  0  0
 37 34  1  0  0  0  0
 38 37  1  0  0  0  0
M  END
>  <minimizedAffinity>
-3.03462672

$$$$
