
 OpenBabel08152211443D

 38 41  0  0  1  0  0  0  0  0999 V2000
   48.8920   11.6570   57.1630 C   0  0  1  0  0  3  0  0  0  0  0  0
   50.0130   10.9180   56.9820 C   0  0  0  0  0  0  0  0  0  0  0  0
   50.8750   11.2650   55.7840 C   0  0  0  0  0  2  0  0  0  0  0  0
   50.8350   12.7480   55.3460 C   0  0  1  0  0  0  0  0  0  0  0  0
   49.4860   13.2560   55.3970 O   0  0  0  0  0  0  0  0  0  0  0  0
   48.5580   12.8340   56.2940 C   0  0  0  0  0  0  0  0  0  0  0  0
   47.4780   13.4210   56.3370 O   0  0  0  0  0  0  0  0  0  0  0  0
   50.4980    9.9270   57.5990 O   0  0  0  0  0  0  0  0  0  0  0  0
   51.7830   13.6390   56.2150 C   0  0  0  0  0  3  0  0  0  0  0  0
   51.7350   15.1390   55.8930 C   0  0  0  0  0  2  0  0  0  0  0  0
   52.3770   15.8420   57.0870 C   0  0  0  0  0  2  0  0  0  0  0  0
   52.4060   14.8190   58.2150 C   0  0  0  0  0  2  0  0  0  0  0  0
   51.5420   13.6620   57.7290 C   0  0  0  0  0  2  0  0  0  0  0  0
   47.7100   11.3140   58.4190 S   0  0  0  0  0  0  0  0  0  0  0  0
   52.3530   11.7830   60.7480 C   0  0  0  0  0  1  0  0  0  0  0  0
   51.0340   11.0660   60.7790 C   0  0  0  0  0  0  0  0  0  0  0  0
   50.0470   11.4230   59.8480 C   0  0  0  0  0  3  0  0  0  0  0  0
   48.7560   10.8430   59.8170 C   0  0  0  0  0  0  0  0  0  0  0  0
   48.4330    9.8530   60.7790 C   0  0  0  0  0  0  0  0  0  0  0  0
   49.4870    9.4610   61.6570 C   0  0  0  0  0  3  0  0  0  0  0  0
   50.7740   10.0190   61.6520 C   0  0  0  0  0  0  0  0  0  0  0  0
   47.0750    9.1070   60.9370 C   0  0  0  0  0  0  0  0  0  0  0  0
   46.8810    8.2090   59.6960 C   0  0  0  0  0  1  0  0  0  0  0  0
   47.0660    8.1920   62.1980 C   0  0  0  0  0  1  0  0  0  0  0  0
   45.8140    9.9830   61.1020 C   0  0  0  0  0  1  0  0  0  0  0  0
   51.7070    9.5860   62.5870 N   0  0  0  0  0  0  0  0  0  0  0  0
   51.5210    8.7400   63.1050 H   0  0  0  0  0  0  0  0  0  0  0  0
   52.6710    9.8710   62.4830 H   0  0  0  0  0  0  0  0  0  0  0  0
   51.3120   12.7900   53.8400 C   0  0  0  0  0  2  0  0  0  0  0  0
   52.3600   11.7610   53.3780 C   0  0  0  0  0  2  0  0  0  0  0  0
   51.8990   10.8210   52.2910 C   0  0  0  0  0  0  0  0  0  0  0  0
   51.8520   11.2400   50.9550 C   0  0  0  0  0  3  0  0  0  0  0  0
   51.4210   10.3650   49.9530 C   0  0  0  0  0  3  0  0  0  0  0  0
   51.0280    9.0740   50.2910 C   0  0  0  0  0  0  0  0  0  0  0  0
   51.0570    8.6450   51.6120 C   0  0  0  0  0  3  0  0  0  0  0  0
   51.4910    9.5170   52.6100 C   0  0  0  0  0  3  0  0  0  0  0  0
   50.6030    8.1890   49.3430 O   0  0  0  0  0  0  0  0  0  0  0  0
   50.6910    8.6170   48.4760 H   0  0  0  0  0  0  0  0  0  0  0  0
  1 14  1  6  0  0  0
  2  1  1  0  0  0  0
  2  8  2  0  0  0  0
  3  2  1  0  0  0  0
  4 29  1  6  0  0  0
  4  5  1  0  0  0  0
  4  3  1  0  0  0  0
  4  9  1  0  0  0  0
  5  6  1  0  0  0  0
  6  7  2  0  0  0  0
  6  1  1  0  0  0  0
  9 13  1  0  0  0  0
 10  9  1  0  0  0  0
 10 11  1  0  0  0  0
 11 12  1  0  0  0  0
 13 12  1  0  0  0  0
 14 18  1  0  0  0  0
 15 16  1  0  0  0  0
 16 21  1  0  0  0  0
 17 16  2  0  0  0  0
 18 17  1  0  0  0  0
 18 19  2  0  0  0  0
 19 22  1  0  0  0  0
 19 20  1  0  0  0  0
 21 20  2  0  0  0  0
 21 26  1  0  0  0  0
 22 25  1  0  0  0  0
 22 24  1  0  0  0  0
 23 22  1  0  0  0  0
 26 27  1  0  0  0  0
 28 26  1  0  0  0  0
 30 29  1  0  0  0  0
 31 36  1  0  0  0  0
 31 30  1  0  0  0  0
 32 31  2  0  0  0  0
 33 34  2  0  0  0  0
 33 32  1  0  0  0  0
 34 35  1  0  0  0  0
 35 36  2  0  0  0  0
 37 34  1  0  0  0  0
 38 37  1  0  0  0  0
M  END
>  <minimizedAffinity>
-1.94563031

$$$$
