
 OpenBabel08152211443D

 38 41  0  0  1  0  0  0  0  0999 V2000
   50.3080   11.0320   58.3950 C   0  0  1  0  0  3  0  0  0  0  0  0
   50.6610    9.7300   58.5220 C   0  0  0  0  0  0  0  0  0  0  0  0
   49.5370    8.7140   58.5340 C   0  0  0  0  0  2  0  0  0  0  0  0
   48.2790    9.1080   57.7250 C   0  0  1  0  0  0  0  0  0  0  0  0
   47.9560   10.4980   57.9340 O   0  0  0  0  0  0  0  0  0  0  0  0
   48.8880   11.4590   58.1680 C   0  0  0  0  0  0  0  0  0  0  0  0
   48.5200   12.6320   58.2050 O   0  0  0  0  0  0  0  0  0  0  0  0
   51.7750    9.1540   58.6850 O   0  0  0  0  0  0  0  0  0  0  0  0
   48.4530    8.8170   56.1970 C   0  0  0  0  0  3  0  0  0  0  0  0
   47.2290    8.1890   55.5160 C   0  0  0  0  0  2  0  0  0  0  0  0
   47.4440    8.3770   54.0160 C   0  0  0  0  0  2  0  0  0  0  0  0
   48.5330    9.4330   53.8750 C   0  0  0  0  0  2  0  0  0  0  0  0
   48.7150   10.0110   55.2730 C   0  0  0  0  0  2  0  0  0  0  0  0
   51.4640   12.3530   58.4930 S   0  0  0  0  0  0  0  0  0  0  0  0
   51.0520   11.9030   53.3140 C   0  0  0  0  0  1  0  0  0  0  0  0
   51.1380   12.8740   54.4560 C   0  0  0  0  0  0  0  0  0  0  0  0
   51.1820   12.3760   55.7670 C   0  0  0  0  0  3  0  0  0  0  0  0
   51.2180   13.2020   56.9160 C   0  0  0  0  0  0  0  0  0  0  0  0
   51.2040   14.6090   56.7420 C   0  0  0  0  0  0  0  0  0  0  0  0
   51.2390   15.0770   55.3940 C   0  0  0  0  0  3  0  0  0  0  0  0
   51.2380   14.2450   54.2650 C   0  0  0  0  0  0  0  0  0  0  0  0
   51.2170   15.6920   57.8600 C   0  0  0  0  0  0  0  0  0  0  0  0
   51.2650   17.0760   57.1790 C   0  0  0  0  0  1  0  0  0  0  0  0
   49.9260   15.6310   58.7330 C   0  0  0  0  0  1  0  0  0  0  0  0
   52.3660   15.6190   58.8890 C   0  0  0  0  0  1  0  0  0  0  0  0
   51.2290   14.8180   52.9970 N   0  0  0  0  0  0  0  0  0  0  0  0
   51.4390   15.8010   52.9060 H   0  0  0  0  0  0  0  0  0  0  0  0
   51.3880   14.2280   52.1940 H   0  0  0  0  0  0  0  0  0  0  0  0
   47.0840    8.2430   58.2910 C   0  0  0  0  0  2  0  0  0  0  0  0
   45.7100    8.9210   58.4600 C   0  0  0  0  0  2  0  0  0  0  0  0
   45.2860    9.1610   59.8880 C   0  0  0  0  0  0  0  0  0  0  0  0
   45.8460   10.2040   60.6360 C   0  0  0  0  0  3  0  0  0  0  0  0
   45.4510   10.4200   61.9590 C   0  0  0  0  0  3  0  0  0  0  0  0
   44.5010    9.5820   62.5370 C   0  0  0  0  0  0  0  0  0  0  0  0
   43.9440    8.5350   61.8150 C   0  0  0  0  0  3  0  0  0  0  0  0
   44.3350    8.3230   60.4930 C   0  0  0  0  0  3  0  0  0  0  0  0
   44.0870    9.7600   63.8250 O   0  0  0  0  0  0  0  0  0  0  0  0
   44.5240   10.5550   64.1710 H   0  0  0  0  0  0  0  0  0  0  0  0
  1 14  1  1  0  0  0
  1  2  1  0  0  0  0
  2  3  1  0  0  0  0
  2  8  2  0  0  0  0
  4  5  1  0  0  0  0
  4 29  1  1  0  0  0
  4  3  1  0  0  0  0
  5  6  1  0  0  0  0
  6  7  2  0  0  0  0
  6  1  1  0  0  0  0
  9  4  1  0  0  0  0
 10  9  1  0  0  0  0
 11 10  1  0  0  0  0
 12 11  1  0  0  0  0
 12 13  1  0  0  0  0
 13  9  1  0  0  0  0
 15 16  1  0  0  0  0
 16 17  1  0  0  0  0
 17 18  2  0  0  0  0
 18 14  1  0  0  0  0
 19 18  1  0  0  0  0
 19 22  1  0  0  0  0
 20 19  2  0  0  0  0
 21 16  2  0  0  0  0
 21 20  1  0  0  0  0
 22 24  1  0  0  0  0
 22 25  1  0  0  0  0
 23 22  1  0  0  0  0
 26 21  1  0  0  0  0
 27 26  1  0  0  0  0
 28 26  1  0  0  0  0
 29 30  1  0  0  0  0
 30 31  1  0  0  0  0
 31 36  2  0  0  0  0
 31 32  1  0  0  0  0
 32 33  2  0  0  0  0
 33 34  1  0  0  0  0
 34 37  1  0  0  0  0
 35 34  2  0  0  0  0
 36 35  1  0  0  0  0
 37 38  1  0  0  0  0
M  END
>  <minimizedAffinity>
-4.6618228

$$$$
