
 OpenBabel08152211443D

 38 41  0  0  1  0  0  0  0  0999 V2000
   49.0250   10.3020   56.8160 C   0  0  1  0  0  3  0  0  0  0  0  0
   48.4700   11.1190   57.7440 C   0  0  0  0  0  0  0  0  0  0  0  0
   48.6730   10.7410   59.1970 C   0  0  0  0  0  2  0  0  0  0  0  0
   49.9840    9.9810   59.5080 C   0  0  1  0  0  0  0  0  0  0  0  0
   50.2490    8.9910   58.4930 O   0  0  0  0  0  0  0  0  0  0  0  0
   49.8930    9.1360   57.1900 C   0  0  0  0  0  0  0  0  0  0  0  0
   50.2770    8.2930   56.3810 O   0  0  0  0  0  0  0  0  0  0  0  0
   47.7480   12.1530   57.6560 O   0  0  0  0  0  0  0  0  0  0  0  0
   51.2020   10.9520   59.6480 C   0  0  0  0  0  3  0  0  0  0  0  0
   51.2410   12.0930   58.6210 C   0  0  0  0  0  2  0  0  0  0  0  0
   52.2220   13.1220   59.1770 C   0  0  0  0  0  2  0  0  0  0  0  0
   52.4090   12.7750   60.6480 C   0  0  0  0  0  2  0  0  0  0  0  0
   51.3350   11.7390   60.9560 C   0  0  0  0  0  2  0  0  0  0  0  0
   48.7830   10.5110   55.0870 S   0  0  0  0  0  0  0  0  0  0  0  0
   49.6690   15.6010   55.7990 C   0  0  0  0  0  1  0  0  0  0  0  0
   50.1030   14.3750   55.0480 C   0  0  0  0  0  0  0  0  0  0  0  0
   49.4800   13.1510   55.3310 C   0  0  0  0  0  3  0  0  0  0  0  0
   49.8420   11.9290   54.7160 C   0  0  0  0  0  0  0  0  0  0  0  0
   50.8940   11.9330   53.7650 C   0  0  0  0  0  0  0  0  0  0  0  0
   51.4490   13.2080   53.4460 C   0  0  0  0  0  3  0  0  0  0  0  0
   51.0550   14.4160   54.0390 C   0  0  0  0  0  0  0  0  0  0  0  0
   51.4620   10.7070   52.9910 C   0  0  0  0  0  0  0  0  0  0  0  0
   52.3070   11.2400   51.8140 C   0  0  0  0  0  1  0  0  0  0  0  0
   52.3910    9.8390   53.8930 C   0  0  0  0  0  1  0  0  0  0  0  0
   50.4360    9.6980   52.4320 C   0  0  0  0  0  1  0  0  0  0  0  0
   51.7010   15.5940   53.6790 N   0  0  0  0  0  0  0  0  0  0  0  0
   52.2820   15.5970   52.8540 H   0  0  0  0  0  0  0  0  0  0  0  0
   51.3140   16.4760   53.9840 H   0  0  0  0  0  0  0  0  0  0  0  0
   49.7580    9.2230   60.8760 C   0  0  0  0  0  2  0  0  0  0  0  0
   49.0790    9.9870   62.0290 C   0  0  0  0  0  2  0  0  0  0  0  0
   47.5860    9.7940   62.1330 C   0  0  0  0  0  0  0  0  0  0  0  0
   46.9860    8.6060   61.6980 C   0  0  0  0  0  3  0  0  0  0  0  0
   45.6020    8.4340   61.7950 C   0  0  0  0  0  3  0  0  0  0  0  0
   44.8180    9.4590   62.3180 C   0  0  0  0  0  0  0  0  0  0  0  0
   45.3940   10.6490   62.7430 C   0  0  0  0  0  3  0  0  0  0  0  0
   46.7760   10.8170   62.6500 C   0  0  0  0  0  3  0  0  0  0  0  0
   43.4640    9.3310   62.4310 O   0  0  0  0  0  0  0  0  0  0  0  0
   43.2250    8.4340   62.1460 H   0  0  0  0  0  0  0  0  0  0  0  0
  1 14  1  1  0  0  0
  1  6  1  0  0  0  0
  1  2  1  0  0  0  0
  2  3  1  0  0  0  0
  3  4  1  0  0  0  0
  4  9  1  0  0  0  0
  4 29  1  1  0  0  0
  5  4  1  0  0  0  0
  6  5  1  0  0  0  0
  7  6  2  0  0  0  0
  8  2  2  0  0  0  0
  9 13  1  0  0  0  0
 10 11  1  0  0  0  0
 10  9  1  0  0  0  0
 11 12  1  0  0  0  0
 12 13  1  0  0  0  0
 16 17  1  0  0  0  0
 16 15  1  0  0  0  0
 18 14  1  0  0  0  0
 18 17  2  0  0  0  0
 19 18  1  0  0  0  0
 20 19  2  0  0  0  0
 20 21  1  0  0  0  0
 21 16  2  0  0  0  0
 22 19  1  0  0  0  0
 22 24  1  0  0  0  0
 23 22  1  0  0  0  0
 25 22  1  0  0  0  0
 26 28  1  0  0  0  0
 26 21  1  0  0  0  0
 27 26  1  0  0  0  0
 29 30  1  0  0  0  0
 30 31  1  0  0  0  0
 31 36  1  0  0  0  0
 32 33  1  0  0  0  0
 32 31  2  0  0  0  0
 33 34  2  0  0  0  0
 34 37  1  0  0  0  0
 34 35  1  0  0  0  0
 36 35  2  0  0  0  0
 38 37  1  0  0  0  0
M  END
>  <minimizedAffinity>
-3.21920657

$$$$
