
 OpenBabel09122222393D

 34 37  0  0  1  0  0  0  0  0999 V2000
    6.3220    0.3750   10.2100 C   0  0  0  0  0  0  0  0  0  0  0  0
    7.1310   -0.6380    9.8460 C   0  0  0  0  0  0  0  0  0  0  0  0
    6.6280   -2.0190    9.7240 C   0  0  0  0  0  0  0  0  0  0  0  0
    7.4440   -3.1280    9.4540 C   0  0  0  0  0  3  0  0  0  0  0  0
    6.8850   -4.3980    9.3320 C   0  0  0  0  0  3  0  0  0  0  0  0
    5.5220   -4.5300    9.4940 C   0  0  0  0  0  3  0  0  0  0  0  0
    4.7120   -3.4930    9.7820 N   0  0  0  0  0  0  0  0  0  0  0  0
    5.2620   -2.2640    9.9090 C   0  0  0  0  0  0  0  0  0  0  0  0
    4.4110   -1.1910   10.2710 N   0  0  0  0  0  0  0  0  0  0  0  0
    4.8720    0.0930   10.4370 C   0  0  0  0  0  0  0  0  0  0  0  0
    4.1510    1.0460   10.7480 O   0  0  0  0  0  0  0  0  0  0  0  0
    7.7390    6.3310   12.4800 C   0  0  0  0  0  0  0  0  0  0  0  0
    7.1310    5.5010   13.4240 C   0  0  0  0  0  3  0  0  0  0  0  0
    6.7670    4.1890   13.1020 C   0  0  0  0  0  3  0  0  0  0  0  0
    7.0060    3.6780   11.8230 C   0  0  0  0  0  0  0  0  0  0  0  0
    7.6100    4.5160   10.9050 C   0  0  0  0  0  0  0  0  0  0  0  0
    7.9830    5.8350   11.2050 C   0  0  0  0  0  3  0  0  0  0  0  0
    7.9090    3.8780    9.3120 S   0  0  0  0  0  0  0  0  0  0  0  0
    9.3460    3.8400    9.1630 O   0  0  0  0  0  0  0  0  0  0  0  0
    7.0970    4.6640    8.4100 O   0  0  0  0  0  0  0  0  0  0  0  0
    7.3500    2.3880    9.3450 N   0  0  0  0  0  0  0  0  0  0  0  0
    6.7990    1.8150   10.3820 C   0  0  1  0  0  3  0  0  0  0  0  0
    6.6310    2.4030   11.5530 N   0  0  0  0  0  0  0  0  0  0  0  0
    7.4350    1.8510    8.4930 H   0  0  0  0  0  0  0  0  0  0  0  0
    6.1850    1.8460   12.2980 H   0  0  0  0  0  0  0  0  0  0  0  0
    9.3620    7.8180   13.3960 C   0  0  0  0  0  1  0  0  0  0  0  0
    8.0370    7.5820   12.9290 O   0  0  0  0  0  0  0  0  0  0  0  0
    8.4640   -0.3850    9.5470 O   0  0  0  0  0  0  0  0  0  0  0  0
    8.8250   -1.1190    9.0120 H   0  0  0  0  0  0  0  0  0  0  0  0
    2.9820   -1.4760   10.4540 C   0  0  0  0  0  2  0  0  0  0  0  0
    2.6340   -1.6830   11.9320 C   0  0  0  0  0  2  0  0  0  0  0  0
    1.9370   -3.0260   12.2140 C   0  0  0  0  0  3  0  0  0  0  0  0
    1.0150   -2.8890   13.4280 C   0  0  0  0  0  1  0  0  0  0  0  0
    1.1350   -3.5260   11.0110 C   0  0  0  0  0  1  0  0  0  0  0  0
  1 10  1  0  0  0  0
  2  1  2  0  0  0  0
  3  2  1  0  0  0  0
  3  8  1  0  0  0  0
  4  3  2  0  0  0  0
  5  4  1  0  0  0  0
  5  6  2  0  0  0  0
  6  7  1  0  0  0  0
  7  8  2  0  0  0  0
  8  9  1  0  0  0  0
  9 10  1  0  0  0  0
  9 30  1  0  0  0  0
 10 11  2  0  0  0  0
 12 27  1  0  0  0  0
 12 13  1  0  0  0  0
 14 13  2  0  0  0  0
 15 14  1  0  0  0  0
 16 17  1  0  0  0  0
 16 15  2  0  0  0  0
 17 12  2  0  0  0  0
 18 21  1  0  0  0  0
 18 16  1  0  0  0  0
 19 18  2  0  0  0  0
 20 18  2  0  0  0  0
 21 22  1  0  0  0  0
 22  1  1  6  0  0  0
 22 23  1  0  0  0  0
 23 15  1  0  0  0  0
 23 25  1  0  0  0  0
 24 21  1  0  0  0  0
 27 26  1  0  0  0  0
 28  2  1  0  0  0  0
 29 28  1  0  0  0  0
 30 31  1  0  0  0  0
 31 32  1  0  0  0  0
 32 33  1  0  0  0  0
 34 32  1  0  0  0  0
M  END
>  <minimizedAffinity>
-6.86935377

$$$$
