
 OpenBabel09122222393D

 34 37  0  0  1  0  0  0  0  0999 V2000
    6.5860    0.3600    9.0730 C   0  0  0  0  0  0  0  0  0  0  0  0
    7.4460   -0.1240    8.1560 C   0  0  0  0  0  0  0  0  0  0  0  0
    7.1060   -1.2910    7.3220 C   0  0  0  0  0  0  0  0  0  0  0  0
    7.9980   -1.9030    6.4290 C   0  0  0  0  0  3  0  0  0  0  0  0
    7.5890   -2.9900    5.6600 C   0  0  0  0  0  3  0  0  0  0  0  0
    6.2970   -3.4460    5.8110 C   0  0  0  0  0  3  0  0  0  0  0  0
    5.4210   -2.9020    6.6780 N   0  0  0  0  0  0  0  0  0  0  0  0
    5.8280   -1.8540    7.4290 C   0  0  0  0  0  0  0  0  0  0  0  0
    4.9190   -1.3270    8.3800 N   0  0  0  0  0  0  0  0  0  0  0  0
    5.2380   -0.2720    9.2000 C   0  0  0  0  0  0  0  0  0  0  0  0
    4.4640    0.2080   10.0330 O   0  0  0  0  0  0  0  0  0  0  0  0
    8.3370    6.1550   11.5200 C   0  0  0  0  0  0  0  0  0  0  0  0
    8.4180    6.0870   10.1270 C   0  0  0  0  0  3  0  0  0  0  0  0
    8.0720    4.9170    9.4420 C   0  0  0  0  0  3  0  0  0  0  0  0
    7.6370    3.7870   10.1390 C   0  0  0  0  0  0  0  0  0  0  0  0
    7.5630    3.8760   11.5170 C   0  0  0  0  0  0  0  0  0  0  0  0
    7.9040    5.0390   12.2250 C   0  0  0  0  0  3  0  0  0  0  0  0
    7.0180    2.4680   12.3840 S   0  0  0  0  0  0  0  0  0  0  0  0
    5.7650    2.8410   13.0000 O   0  0  0  0  0  0  0  0  0  0  0  0
    8.1380    2.0440   13.1950 O   0  0  0  0  0  0  0  0  0  0  0  0
    6.7420    1.3680   11.2680 N   0  0  0  0  0  0  0  0  0  0  0  0
    6.9020    1.5440    9.9830 C   0  0  1  0  0  3  0  0  0  0  0  0
    7.3180    2.6730    9.4350 N   0  0  0  0  0  0  0  0  0  0  0  0
    6.4160    0.4660   11.5880 H   0  0  0  0  0  0  0  0  0  0  0  0
    7.4020    2.6910    8.4070 H   0  0  0  0  0  0  0  0  0  0  0  0
    7.9120    7.8750   13.1160 C   0  0  0  0  0  1  0  0  0  0  0  0
    8.7050    7.3530   12.0540 O   0  0  0  0  0  0  0  0  0  0  0  0
    8.6730    0.5000    7.9620 O   0  0  0  0  0  0  0  0  0  0  0  0
    9.0320    0.2510    7.0870 H   0  0  0  0  0  0  0  0  0  0  0  0
    3.5850   -1.9340    8.4670 C   0  0  0  0  0  2  0  0  0  0  0  0
    3.5140   -2.9840    9.5820 C   0  0  0  0  0  2  0  0  0  0  0  0
    2.4240   -2.6930   10.6280 C   0  0  0  0  0  3  0  0  0  0  0  0
    1.2110   -3.5920   10.3790 C   0  0  0  0  0  1  0  0  0  0  0  0
    2.9270   -2.8910   12.0590 C   0  0  0  0  0  1  0  0  0  0  0  0
  1 10  1  0  0  0  0
  2  1  2  0  0  0  0
  3  8  1  0  0  0  0
  3  2  1  0  0  0  0
  4  3  2  0  0  0  0
  5  6  2  0  0  0  0
  5  4  1  0  0  0  0
  6  7  1  0  0  0  0
  7  8  2  0  0  0  0
  8  9  1  0  0  0  0
  9 30  1  0  0  0  0
  9 10  1  0  0  0  0
 10 11  2  0  0  0  0
 12 27  1  0  0  0  0
 12 17  1  0  0  0  0
 13 12  2  0  0  0  0
 14 13  1  0  0  0  0
 14 15  2  0  0  0  0
 15 16  1  0  0  0  0
 16 17  2  0  0  0  0
 16 18  1  0  0  0  0
 18 19  2  0  0  0  0
 18 20  2  0  0  0  0
 21 24  1  0  0  0  0
 21 18  1  0  0  0  0
 22  1  1  1  0  0  0
 22 21  1  0  0  0  0
 23 22  1  0  0  0  0
 23 15  1  0  0  0  0
 25 23  1  0  0  0  0
 27 26  1  0  0  0  0
 28  2  1  0  0  0  0
 29 28  1  0  0  0  0
 30 31  1  0  0  0  0
 31 32  1  0  0  0  0
 32 34  1  0  0  0  0
 33 32  1  0  0  0  0
M  END
>  <minimizedAffinity>
-6.82689667

$$$$
