
 OpenBabel09122222233D

 34 37  0  0  1  0  0  0  0  0999 V2000
    5.3080    0.6310   10.5750 C   0  0  0  0  0  0  0  0  0  0  0  0
    4.3800    0.3120   11.4970 C   0  0  0  0  0  0  0  0  0  0  0  0
    3.5570   -0.9050   11.3720 C   0  0  0  0  0  0  0  0  0  0  0  0
    2.5060   -1.2330   12.2410 C   0  0  0  0  0  3  0  0  0  0  0  0
    1.7910   -2.4150   12.0660 C   0  0  0  0  0  3  0  0  0  0  0  0
    2.1390   -3.2380   11.0160 C   0  0  0  0  0  3  0  0  0  0  0  0
    3.1230   -2.9440   10.1450 N   0  0  0  0  0  0  0  0  0  0  0  0
    3.8060   -1.7880   10.3140 C   0  0  0  0  0  0  0  0  0  0  0  0
    4.7990   -1.4590    9.3590 N   0  0  0  0  0  0  0  0  0  0  0  0
    5.5400   -0.3050    9.4330 C   0  0  0  0  0  0  0  0  0  0  0  0
    6.4130    0.0040    8.6170 O   0  0  0  0  0  0  0  0  0  0  0  0
    8.4190    6.0630   12.4350 C   0  0  0  0  0  0  0  0  0  0  0  0
    7.6790    5.4630   13.4560 C   0  0  0  0  0  3  0  0  0  0  0  0
    6.9560    4.2870   13.2260 C   0  0  0  0  0  3  0  0  0  0  0  0
    6.9600    3.6840   11.9660 C   0  0  0  0  0  0  0  0  0  0  0  0
    7.7000    4.2940   10.9700 C   0  0  0  0  0  0  0  0  0  0  0  0
    8.4320    5.4730   11.1770 C   0  0  0  0  0  3  0  0  0  0  0  0
    7.7050    3.5400    9.4000 S   0  0  0  0  0  0  0  0  0  0  0  0
    9.0660    3.1110    9.1700 O   0  0  0  0  0  0  0  0  0  0  0  0
    7.0710    4.4830    8.5050 O   0  0  0  0  0  0  0  0  0  0  0  0
    6.7740    2.2590    9.5450 N   0  0  0  0  0  0  0  0  0  0  0  0
    6.1630    1.8940   10.6410 C   0  0  1  0  0  3  0  0  0  0  0  0
    6.2410    2.5480   11.7870 N   0  0  0  0  0  0  0  0  0  0  0  0
    6.6520    1.6870    8.7200 H   0  0  0  0  0  0  0  0  0  0  0  0
    5.7150    2.1590   12.5850 H   0  0  0  0  0  0  0  0  0  0  0  0
    8.2810    8.3600   13.0580 C   0  0  0  0  0  1  0  0  0  0  0  0
    9.0700    7.2030   12.7980 O   0  0  0  0  0  0  0  0  0  0  0  0
    4.2050    1.1230   12.6120 O   0  0  0  0  0  0  0  0  0  0  0  0
    3.7530    0.6180   13.3170 H   0  0  0  0  0  0  0  0  0  0  0  0
    5.0420   -2.4060    8.2630 C   0  0  0  0  0  2  0  0  0  0  0  0
    4.5160   -1.8690    6.9270 C   0  0  0  0  0  2  0  0  0  0  0  0
    3.0720   -2.3030    6.6190 C   0  0  0  0  0  3  0  0  0  0  0  0
    2.1010   -1.1810    6.9970 C   0  0  0  0  0  1  0  0  0  0  0  0
    2.8800   -2.6770    5.1490 C   0  0  0  0  0  1  0  0  0  0  0  0
  1  2  2  0  0  0  0
  2 28  1  0  0  0  0
  3  2  1  0  0  0  0
  3  4  1  0  0  0  0
  5  4  2  0  0  0  0
  6  5  1  0  0  0  0
  7  8  1  0  0  0  0
  7  6  2  0  0  0  0
  8  3  2  0  0  0  0
  9 10  1  0  0  0  0
  9  8  1  0  0  0  0
 10  1  1  0  0  0  0
 11 10  2  0  0  0  0
 12 27  1  0  0  0  0
 12 13  1  0  0  0  0
 14 13  2  0  0  0  0
 15 14  1  0  0  0  0
 16 17  1  0  0  0  0
 16 15  2  0  0  0  0
 17 12  2  0  0  0  0
 18 21  1  0  0  0  0
 18 16  1  0  0  0  0
 19 18  2  0  0  0  0
 20 18  2  0  0  0  0
 21 22  1  0  0  0  0
 22  1  1  6  0  0  0
 22 23  1  0  0  0  0
 23 15  1  0  0  0  0
 23 25  1  0  0  0  0
 24 21  1  0  0  0  0
 27 26  1  0  0  0  0
 28 29  1  0  0  0  0
 30  9  1  0  0  0  0
 31 30  1  0  0  0  0
 32 31  1  0  0  0  0
 32 33  1  0  0  0  0
 34 32  1  0  0  0  0
M  END
>  <minimizedAffinity>
-7.36539793

$$$$

 OpenBabel09122222233D

 34 37  0  0  1  0  0  0  0  0999 V2000
    5.9020    0.9180   11.1190 C   0  0  0  0  0  0  0  0  0  0  0  0
    4.6300    0.7650   11.5360 C   0  0  0  0  0  0  0  0  0  0  0  0
    4.0170   -0.5700   11.6610 C   0  0  0  0  0  0  0  0  0  0  0  0
    2.6690   -0.7860   11.9870 C   0  0  0  0  0  3  0  0  0  0  0  0
    2.1740   -2.0820   12.1080 C   0  0  0  0  0  3  0  0  0  0  0  0
    3.0380   -3.1340   11.8900 C   0  0  0  0  0  3  0  0  0  0  0  0
    4.3310   -2.9650   11.5490 N   0  0  0  0  0  0  0  0  0  0  0  0
    4.8030   -1.7040   11.4220 C   0  0  0  0  0  0  0  0  0  0  0  0
    6.1470   -1.5380   11.0050 N   0  0  0  0  0  0  0  0  0  0  0  0
    6.7180   -0.3000   10.8350 C   0  0  0  0  0  0  0  0  0  0  0  0
    7.8870   -0.1280   10.4770 O   0  0  0  0  0  0  0  0  0  0  0  0
    8.2910    6.9400   11.9440 C   0  0  0  0  0  0  0  0  0  0  0  0
    7.6850    6.4150   13.0880 C   0  0  0  0  0  3  0  0  0  0  0  0
    7.1270    5.1320   13.0830 C   0  0  0  0  0  3  0  0  0  0  0  0
    7.1630    4.3440   11.9300 C   0  0  0  0  0  0  0  0  0  0  0  0
    7.7680    4.8820   10.8090 C   0  0  0  0  0  0  0  0  0  0  0  0
    8.3350    6.1660   10.7910 C   0  0  0  0  0  3  0  0  0  0  0  0
    7.8150    3.8990    9.3730 S   0  0  0  0  0  0  0  0  0  0  0  0
    9.2130    3.6220    9.1260 O   0  0  0  0  0  0  0  0  0  0  0  0
    7.0190    4.5960    8.3880 O   0  0  0  0  0  0  0  0  0  0  0  0
    7.0800    2.5440    9.7670 N   0  0  0  0  0  0  0  0  0  0  0  0
    6.5720    2.2780   10.9420 C   0  0  1  0  0  3  0  0  0  0  0  0
    6.6040    3.1090   11.9690 N   0  0  0  0  0  0  0  0  0  0  0  0
    7.0060    1.8390    9.0460 H   0  0  0  0  0  0  0  0  0  0  0  0
    6.1720    2.7850   12.8480 H   0  0  0  0  0  0  0  0  0  0  0  0
    8.8940    8.7180   13.4130 C   0  0  0  0  0  1  0  0  0  0  0  0
    8.7900    8.1980   12.0910 O   0  0  0  0  0  0  0  0  0  0  0  0
    3.8780    1.8800   11.8870 O   0  0  0  0  0  0  0  0  0  0  0  0
    3.1280    1.6050   12.4510 H   0  0  0  0  0  0  0  0  0  0  0  0
    6.9480   -2.7450   10.7660 C   0  0  0  0  0  2  0  0  0  0  0  0
    6.8950   -3.1750    9.2960 C   0  0  0  0  0  2  0  0  0  0  0  0
    8.2860   -3.3670    8.6650 C   0  0  0  0  0  3  0  0  0  0  0  0
    8.5650   -2.2390    7.6680 C   0  0  0  0  0  1  0  0  0  0  0  0
    9.3970   -3.4140    9.7150 C   0  0  0  0  0  1  0  0  0  0  0  0
  1  2  2  0  0  0  0
  2  3  1  0  0  0  0
  2 28  1  0  0  0  0
  3  4  1  0  0  0  0
  4  5  2  0  0  0  0
  6  5  1  0  0  0  0
  7  6  2  0  0  0  0
  8  7  1  0  0  0  0
  8  3  2  0  0  0  0
  9  8  1  0  0  0  0
 10  9  1  0  0  0  0
 10  1  1  0  0  0  0
 11 10  2  0  0  0  0
 12 27  1  0  0  0  0
 12 13  1  0  0  0  0
 14 13  2  0  0  0  0
 15 23  1  0  0  0  0
 15 14  1  0  0  0  0
 16 15  2  0  0  0  0
 17 16  1  0  0  0  0
 17 12  2  0  0  0  0
 18 21  1  0  0  0  0
 18 16  1  0  0  0  0
 19 18  2  0  0  0  0
 20 18  2  0  0  0  0
 21 22  1  0  0  0  0
 22  1  1  6  0  0  0
 22 23  1  0  0  0  0
 23 25  1  0  0  0  0
 24 21  1  0  0  0  0
 27 26  1  0  0  0  0
 28 29  1  0  0  0  0
 30  9  1  0  0  0  0
 31 30  1  0  0  0  0
 32 31  1  0  0  0  0
 32 34  1  0  0  0  0
 33 32  1  0  0  0  0
M  END
>  <minimizedAffinity>
-7.22404289

$$$$

 OpenBabel09122222233D

 34 37  0  0  1  0  0  0  0  0999 V2000
    6.6610   -0.2670    8.4870 C   0  0  0  0  0  0  0  0  0  0  0  0
    5.4690   -0.7870    8.1360 C   0  0  0  0  0  0  0  0  0  0  0  0
    5.3600   -1.8390    7.1090 C   0  0  0  0  0  0  0  0  0  0  0  0
    4.1410   -2.3420    6.6280 C   0  0  0  0  0  3  0  0  0  0  0  0
    4.1270   -3.3530    5.6710 C   0  0  0  0  0  3  0  0  0  0  0  0
    5.3340   -3.8320    5.2090 C   0  0  0  0  0  3  0  0  0  0  0  0
    6.5230   -3.3550    5.6260 N   0  0  0  0  0  0  0  0  0  0  0  0
    6.5300   -2.3650    6.5480 C   0  0  0  0  0  0  0  0  0  0  0  0
    7.7830   -1.8300    6.9360 N   0  0  0  0  0  0  0  0  0  0  0  0
    7.8990   -0.8150    7.8540 C   0  0  0  0  0  0  0  0  0  0  0  0
    8.9780   -0.3340    8.2120 O   0  0  0  0  0  0  0  0  0  0  0  0
    7.9020    5.3480   11.5810 C   0  0  0  0  0  0  0  0  0  0  0  0
    8.1490    5.3980   10.2070 C   0  0  0  0  0  3  0  0  0  0  0  0
    7.9290    4.2800    9.3950 C   0  0  0  0  0  3  0  0  0  0  0  0
    7.4550    3.0850    9.9410 C   0  0  0  0  0  0  0  0  0  0  0  0
    7.2150    3.0570   11.3030 C   0  0  0  0  0  0  0  0  0  0  0  0
    7.4290    4.1660   12.1370 C   0  0  0  0  0  3  0  0  0  0  0  0
    6.6220    1.5680   11.9830 S   0  0  0  0  0  0  0  0  0  0  0  0
    5.2920    1.8560   12.4700 O   0  0  0  0  0  0  0  0  0  0  0  0
    7.6520    1.1070   12.8870 O   0  0  0  0  0  0  0  0  0  0  0  0
    6.5200    0.5580   10.7580 N   0  0  0  0  0  0  0  0  0  0  0  0
    6.8240    0.8440    9.5190 C   0  0  1  0  0  3  0  0  0  0  0  0
    7.2620    2.0250    9.1170 N   0  0  0  0  0  0  0  0  0  0  0  0
    6.1900   -0.3760   10.9630 H   0  0  0  0  0  0  0  0  0  0  0  0
    7.4660    2.1310    8.1110 H   0  0  0  0  0  0  0  0  0  0  0  0
    7.1060    7.0760   13.0170 C   0  0  0  0  0  1  0  0  0  0  0  0
    8.1610    6.5060   12.2490 O   0  0  0  0  0  0  0  0  0  0  0  0
    4.3110   -0.3520    8.7710 O   0  0  0  0  0  0  0  0  0  0  0  0
    3.6030   -1.0170    8.6520 H   0  0  0  0  0  0  0  0  0  0  0  0
    8.9940   -2.4040    6.3340 C   0  0  0  0  0  2  0  0  0  0  0  0
    9.5890   -1.4760    5.2700 C   0  0  0  0  0  2  0  0  0  0  0  0
    9.1330   -1.8150    3.8390 C   0  0  0  0  0  3  0  0  0  0  0  0
    9.4250   -0.6360    2.9080 C   0  0  0  0  0  1  0  0  0  0  0  0
    9.8080   -3.0780    3.3000 C   0  0  0  0  0  1  0  0  0  0  0  0
  2  1  2  0  0  0  0
  2 28  1  0  0  0  0
  3  2  1  0  0  0  0
  4  3  1  0  0  0  0
  5  4  2  0  0  0  0
  6  7  2  0  0  0  0
  6  5  1  0  0  0  0
  7  8  1  0  0  0  0
  8  9  1  0  0  0  0
  8  3  2  0  0  0  0
  9 10  1  0  0  0  0
 10 11  2  0  0  0  0
 10  1  1  0  0  0  0
 12 17  1  0  0  0  0
 12 27  1  0  0  0  0
 13 12  2  0  0  0  0
 14 15  2  0  0  0  0
 14 13  1  0  0  0  0
 15 16  1  0  0  0  0
 16 18  1  0  0  0  0
 16 17  2  0  0  0  0
 18 19  2  0  0  0  0
 18 20  2  0  0  0  0
 21 24  1  0  0  0  0
 21 18  1  0  0  0  0
 22  1  1  1  0  0  0
 22 21  1  0  0  0  0
 23 22  1  0  0  0  0
 23 15  1  0  0  0  0
 25 23  1  0  0  0  0
 27 26  1  0  0  0  0
 29 28  1  0  0  0  0
 30  9  1  0  0  0  0
 31 30  1  0  0  0  0
 32 31  1  0  0  0  0
 33 32  1  0  0  0  0
 34 32  1  0  0  0  0
M  END
>  <minimizedAffinity>
-7.05556631

$$$$

 OpenBabel09122222233D

 34 37  0  0  1  0  0  0  0  0999 V2000
    7.6580    0.8960    9.0940 C   0  0  0  0  0  0  0  0  0  0  0  0
    8.6640    0.6560    8.2320 C   0  0  0  0  0  0  0  0  0  0  0  0
    8.6280   -0.4910    7.3070 C   0  0  0  0  0  0  0  0  0  0  0  0
    9.6900   -0.8520    6.4630 C   0  0  0  0  0  3  0  0  0  0  0  0
    9.5650   -1.9390    5.6010 C   0  0  0  0  0  3  0  0  0  0  0  0
    8.3830   -2.6470    5.6110 C   0  0  0  0  0  3  0  0  0  0  0  0
    7.3530   -2.3480    6.4260 N   0  0  0  0  0  0  0  0  0  0  0  0
    7.4840   -1.2980    7.2690 C   0  0  0  0  0  0  0  0  0  0  0  0
    6.4190   -1.0290    8.1630 N   0  0  0  0  0  0  0  0  0  0  0  0
    6.4580    0.0060    9.0660 C   0  0  0  0  0  0  0  0  0  0  0  0
    5.5430    0.2640    9.8530 O   0  0  0  0  0  0  0  0  0  0  0  0
    8.0770    6.7200   12.0170 C   0  0  0  0  0  0  0  0  0  0  0  0
    8.3090    6.7650   10.6410 C   0  0  0  0  0  3  0  0  0  0  0  0
    8.2510    5.6040    9.8620 C   0  0  0  0  0  3  0  0  0  0  0  0
    7.9590    4.3690   10.4460 C   0  0  0  0  0  0  0  0  0  0  0  0
    7.7310    4.3470   11.8100 C   0  0  0  0  0  0  0  0  0  0  0  0
    7.7830    5.4980   12.6110 C   0  0  0  0  0  3  0  0  0  0  0  0
    7.3650    2.8080   12.5370 S   0  0  0  0  0  0  0  0  0  0  0  0
    6.0090    2.9120   13.0260 O   0  0  0  0  0  0  0  0  0  0  0  0
    8.4550    2.5280   13.4460 O   0  0  0  0  0  0  0  0  0  0  0  0
    7.4060    1.7580   11.3420 N   0  0  0  0  0  0  0  0  0  0  0  0
    7.6610    2.0490   10.0940 C   0  0  1  0  0  3  0  0  0  0  0  0
    7.9200    3.2690    9.6550 N   0  0  0  0  0  0  0  0  0  0  0  0
    7.2180    0.7920   11.5760 H   0  0  0  0  0  0  0  0  0  0  0  0
    8.1030    3.3740    8.6440 H   0  0  0  0  0  0  0  0  0  0  0  0
    9.4040    8.6230   12.5630 C   0  0  0  0  0  1  0  0  0  0  0  0
    8.1670    7.9230   12.6490 O   0  0  0  0  0  0  0  0  0  0  0  0
    9.7520    1.5190    8.1820 O   0  0  0  0  0  0  0  0  0  0  0  0
   10.2190    1.4090    7.3290 H   0  0  0  0  0  0  0  0  0  0  0  0
    5.2300   -1.8890    8.0980 C   0  0  0  0  0  2  0  0  0  0  0  0
    4.0860   -1.2130    7.3330 C   0  0  0  0  0  2  0  0  0  0  0  0
    3.1810   -2.2070    6.5840 C   0  0  0  0  0  3  0  0  0  0  0  0
    1.9230   -1.4900    6.0870 C   0  0  0  0  0  1  0  0  0  0  0  0
    3.8970   -2.8680    5.4050 C   0  0  0  0  0  1  0  0  0  0  0  0
  2  1  2  0  0  0  0
  3  2  1  0  0  0  0
  4  3  2  0  0  0  0
  5  6  2  0  0  0  0
  5  4  1  0  0  0  0
  6  7  1  0  0  0  0
  7  8  2  0  0  0  0
  8  3  1  0  0  0  0
  8  9  1  0  0  0  0
  9 10  1  0  0  0  0
 10  1  1  0  0  0  0
 10 11  2  0  0  0  0
 12 17  1  0  0  0  0
 12 27  1  0  0  0  0
 13 12  2  0  0  0  0
 14 15  2  0  0  0  0
 14 13  1  0  0  0  0
 15 16  1  0  0  0  0
 16 18  1  0  0  0  0
 16 17  2  0  0  0  0
 18 19  2  0  0  0  0
 18 20  2  0  0  0  0
 21 24  1  0  0  0  0
 21 18  1  0  0  0  0
 22  1  1  1  0  0  0
 22 21  1  0  0  0  0
 23 22  1  0  0  0  0
 23 15  1  0  0  0  0
 25 23  1  0  0  0  0
 26 27  1  0  0  0  0
 28  2  1  0  0  0  0
 29 28  1  0  0  0  0
 30  9  1  0  0  0  0
 31 30  1  0  0  0  0
 32 31  1  0  0  0  0
 33 32  1  0  0  0  0
 34 32  1  0  0  0  0
M  END
>  <minimizedAffinity>
-6.961905

$$$$

 OpenBabel09122222233D

 34 37  0  0  1  0  0  0  0  0999 V2000
    6.3220    0.3750   10.2100 C   0  0  0  0  0  0  0  0  0  0  0  0
    7.1310   -0.6380    9.8460 C   0  0  0  0  0  0  0  0  0  0  0  0
    6.6280   -2.0190    9.7240 C   0  0  0  0  0  0  0  0  0  0  0  0
    7.4440   -3.1280    9.4540 C   0  0  0  0  0  3  0  0  0  0  0  0
    6.8850   -4.3980    9.3320 C   0  0  0  0  0  3  0  0  0  0  0  0
    5.5220   -4.5300    9.4940 C   0  0  0  0  0  3  0  0  0  0  0  0
    4.7120   -3.4930    9.7820 N   0  0  0  0  0  0  0  0  0  0  0  0
    5.2620   -2.2640    9.9090 C   0  0  0  0  0  0  0  0  0  0  0  0
    4.4110   -1.1910   10.2710 N   0  0  0  0  0  0  0  0  0  0  0  0
    4.8720    0.0930   10.4370 C   0  0  0  0  0  0  0  0  0  0  0  0
    4.1510    1.0460   10.7480 O   0  0  0  0  0  0  0  0  0  0  0  0
    7.7390    6.3310   12.4800 C   0  0  0  0  0  0  0  0  0  0  0  0
    7.1310    5.5010   13.4240 C   0  0  0  0  0  3  0  0  0  0  0  0
    6.7670    4.1890   13.1020 C   0  0  0  0  0  3  0  0  0  0  0  0
    7.0060    3.6780   11.8230 C   0  0  0  0  0  0  0  0  0  0  0  0
    7.6100    4.5160   10.9050 C   0  0  0  0  0  0  0  0  0  0  0  0
    7.9830    5.8350   11.2050 C   0  0  0  0  0  3  0  0  0  0  0  0
    7.9090    3.8780    9.3120 S   0  0  0  0  0  0  0  0  0  0  0  0
    9.3460    3.8400    9.1630 O   0  0  0  0  0  0  0  0  0  0  0  0
    7.0970    4.6640    8.4100 O   0  0  0  0  0  0  0  0  0  0  0  0
    7.3500    2.3880    9.3450 N   0  0  0  0  0  0  0  0  0  0  0  0
    6.7990    1.8150   10.3820 C   0  0  1  0  0  3  0  0  0  0  0  0
    6.6310    2.4030   11.5530 N   0  0  0  0  0  0  0  0  0  0  0  0
    7.4350    1.8510    8.4930 H   0  0  0  0  0  0  0  0  0  0  0  0
    6.1850    1.8460   12.2980 H   0  0  0  0  0  0  0  0  0  0  0  0
    9.3620    7.8180   13.3960 C   0  0  0  0  0  1  0  0  0  0  0  0
    8.0370    7.5820   12.9290 O   0  0  0  0  0  0  0  0  0  0  0  0
    8.4640   -0.3850    9.5470 O   0  0  0  0  0  0  0  0  0  0  0  0
    8.8250   -1.1190    9.0120 H   0  0  0  0  0  0  0  0  0  0  0  0
    2.9820   -1.4760   10.4540 C   0  0  0  0  0  2  0  0  0  0  0  0
    2.6340   -1.6830   11.9320 C   0  0  0  0  0  2  0  0  0  0  0  0
    1.9370   -3.0260   12.2140 C   0  0  0  0  0  3  0  0  0  0  0  0
    1.0150   -2.8890   13.4280 C   0  0  0  0  0  1  0  0  0  0  0  0
    1.1350   -3.5260   11.0110 C   0  0  0  0  0  1  0  0  0  0  0  0
  1 10  1  0  0  0  0
  2  1  2  0  0  0  0
  3  2  1  0  0  0  0
  3  8  1  0  0  0  0
  4  3  2  0  0  0  0
  5  4  1  0  0  0  0
  5  6  2  0  0  0  0
  6  7  1  0  0  0  0
  7  8  2  0  0  0  0
  8  9  1  0  0  0  0
  9 10  1  0  0  0  0
  9 30  1  0  0  0  0
 10 11  2  0  0  0  0
 12 27  1  0  0  0  0
 12 13  1  0  0  0  0
 14 13  2  0  0  0  0
 15 14  1  0  0  0  0
 16 17  1  0  0  0  0
 16 15  2  0  0  0  0
 17 12  2  0  0  0  0
 18 21  1  0  0  0  0
 18 16  1  0  0  0  0
 19 18  2  0  0  0  0
 20 18  2  0  0  0  0
 21 22  1  0  0  0  0
 22  1  1  6  0  0  0
 22 23  1  0  0  0  0
 23 15  1  0  0  0  0
 23 25  1  0  0  0  0
 24 21  1  0  0  0  0
 27 26  1  0  0  0  0
 28  2  1  0  0  0  0
 29 28  1  0  0  0  0
 30 31  1  0  0  0  0
 31 32  1  0  0  0  0
 32 33  1  0  0  0  0
 34 32  1  0  0  0  0
M  END
>  <minimizedAffinity>
-6.86935377

$$$$

 OpenBabel09122222233D

 34 37  0  0  1  0  0  0  0  0999 V2000
    5.9160    0.2790    9.3300 C   0  0  0  0  0  0  0  0  0  0  0  0
    4.6360   -0.0650    9.5670 C   0  0  0  0  0  0  0  0  0  0  0  0
    4.0820   -1.3450    9.0890 C   0  0  0  0  0  0  0  0  0  0  0  0
    2.7320   -1.7090    9.2130 C   0  0  0  0  0  3  0  0  0  0  0  0
    2.2940   -2.9480    8.7530 C   0  0  0  0  0  3  0  0  0  0  0  0
    3.2150   -3.7920    8.1710 C   0  0  0  0  0  3  0  0  0  0  0  0
    4.5120   -3.4660    8.0100 N   0  0  0  0  0  0  0  0  0  0  0  0
    4.9300   -2.2560    8.4480 C   0  0  0  0  0  0  0  0  0  0  0  0
    6.2810   -1.8990    8.2200 N   0  0  0  0  0  0  0  0  0  0  0  0
    6.8010   -0.6900    8.6140 C   0  0  0  0  0  0  0  0  0  0  0  0
    7.9750   -0.3560    8.4320 O   0  0  0  0  0  0  0  0  0  0  0  0
    7.8440    5.5350   12.6910 C   0  0  0  0  0  0  0  0  0  0  0  0
    7.1210    4.6160   13.4540 C   0  0  0  0  0  3  0  0  0  0  0  0
    6.6390    3.4300   12.8870 C   0  0  0  0  0  3  0  0  0  0  0  0
    6.8710    3.1400   11.5410 C   0  0  0  0  0  0  0  0  0  0  0  0
    7.5900    4.0630   10.8040 C   0  0  0  0  0  0  0  0  0  0  0  0
    8.0830    5.2570   11.3510 C   0  0  0  0  0  3  0  0  0  0  0  0
    7.8810    3.6980    9.1260 S   0  0  0  0  0  0  0  0  0  0  0  0
    9.3120    3.5360    8.9970 O   0  0  0  0  0  0  0  0  0  0  0  0
    7.1860    4.7180    8.3720 O   0  0  0  0  0  0  0  0  0  0  0  0
    7.1740    2.2950    8.8720 N   0  0  0  0  0  0  0  0  0  0  0  0
    6.5300    1.6040    9.7750 C   0  0  1  0  0  3  0  0  0  0  0  0
    6.3800    1.9830   11.0320 N   0  0  0  0  0  0  0  0  0  0  0  0
    7.2350    1.9170    7.9360 H   0  0  0  0  0  0  0  0  0  0  0  0
    5.8530    1.3490   11.6520 H   0  0  0  0  0  0  0  0  0  0  0  0
    7.4910    7.8370   13.1990 C   0  0  0  0  0  1  0  0  0  0  0  0
    8.2500    6.6440   13.3700 O   0  0  0  0  0  0  0  0  0  0  0  0
    3.8180    0.7830   10.3030 O   0  0  0  0  0  0  0  0  0  0  0  0
    3.0560    0.2800   10.6550 H   0  0  0  0  0  0  0  0  0  0  0  0
    7.1490   -2.8760    7.5490 C   0  0  0  0  0  2  0  0  0  0  0  0
    7.2350   -2.6130    6.0420 C   0  0  0  0  0  2  0  0  0  0  0  0
    8.6650   -2.7180    5.4840 C   0  0  0  0  0  3  0  0  0  0  0  0
    8.6170   -3.0230    3.9850 C   0  0  0  0  0  1  0  0  0  0  0  0
    9.4760   -1.4430    5.7250 C   0  0  0  0  0  1  0  0  0  0  0  0
  1  2  2  0  0  0  0
  2 28  1  0  0  0  0
  3  4  1  0  0  0  0
  3  2  1  0  0  0  0
  5  4  2  0  0  0  0
  6  5  1  0  0  0  0
  7  6  2  0  0  0  0
  7  8  1  0  0  0  0
  8  3  2  0  0  0  0
  9  8  1  0  0  0  0
  9 10  1  0  0  0  0
 10  1  1  0  0  0  0
 11 10  2  0  0  0  0
 12 27  1  0  0  0  0
 12 13  1  0  0  0  0
 14 13  2  0  0  0  0
 15 14  1  0  0  0  0
 16 17  1  0  0  0  0
 16 15  2  0  0  0  0
 17 12  2  0  0  0  0
 18 16  1  0  0  0  0
 19 18  2  0  0  0  0
 20 18  2  0  0  0  0
 21 18  1  0  0  0  0
 21 22  1  0  0  0  0
 22  1  1  6  0  0  0
 22 23  1  0  0  0  0
 23 15  1  0  0  0  0
 23 25  1  0  0  0  0
 24 21  1  0  0  0  0
 26 27  1  0  0  0  0
 28 29  1  0  0  0  0
 30  9  1  0  0  0  0
 31 30  1  0  0  0  0
 32 34  1  0  0  0  0
 32 31  1  0  0  0  0
 33 32  1  0  0  0  0
M  END
>  <minimizedAffinity>
-6.86836624

$$$$

 OpenBabel09122222233D

 34 37  0  0  1  0  0  0  0  0999 V2000
    6.5860    0.3600    9.0730 C   0  0  0  0  0  0  0  0  0  0  0  0
    7.4460   -0.1240    8.1560 C   0  0  0  0  0  0  0  0  0  0  0  0
    7.1060   -1.2910    7.3220 C   0  0  0  0  0  0  0  0  0  0  0  0
    7.9980   -1.9030    6.4290 C   0  0  0  0  0  3  0  0  0  0  0  0
    7.5890   -2.9900    5.6600 C   0  0  0  0  0  3  0  0  0  0  0  0
    6.2970   -3.4460    5.8110 C   0  0  0  0  0  3  0  0  0  0  0  0
    5.4210   -2.9020    6.6780 N   0  0  0  0  0  0  0  0  0  0  0  0
    5.8280   -1.8540    7.4290 C   0  0  0  0  0  0  0  0  0  0  0  0
    4.9190   -1.3270    8.3800 N   0  0  0  0  0  0  0  0  0  0  0  0
    5.2380   -0.2720    9.2000 C   0  0  0  0  0  0  0  0  0  0  0  0
    4.4640    0.2080   10.0330 O   0  0  0  0  0  0  0  0  0  0  0  0
    8.3370    6.1550   11.5200 C   0  0  0  0  0  0  0  0  0  0  0  0
    8.4180    6.0870   10.1270 C   0  0  0  0  0  3  0  0  0  0  0  0
    8.0720    4.9170    9.4420 C   0  0  0  0  0  3  0  0  0  0  0  0
    7.6370    3.7870   10.1390 C   0  0  0  0  0  0  0  0  0  0  0  0
    7.5630    3.8760   11.5170 C   0  0  0  0  0  0  0  0  0  0  0  0
    7.9040    5.0390   12.2250 C   0  0  0  0  0  3  0  0  0  0  0  0
    7.0180    2.4680   12.3840 S   0  0  0  0  0  0  0  0  0  0  0  0
    5.7650    2.8410   13.0000 O   0  0  0  0  0  0  0  0  0  0  0  0
    8.1380    2.0440   13.1950 O   0  0  0  0  0  0  0  0  0  0  0  0
    6.7420    1.3680   11.2680 N   0  0  0  0  0  0  0  0  0  0  0  0
    6.9020    1.5440    9.9830 C   0  0  1  0  0  3  0  0  0  0  0  0
    7.3180    2.6730    9.4350 N   0  0  0  0  0  0  0  0  0  0  0  0
    6.4160    0.4660   11.5880 H   0  0  0  0  0  0  0  0  0  0  0  0
    7.4020    2.6910    8.4070 H   0  0  0  0  0  0  0  0  0  0  0  0
    7.9120    7.8750   13.1160 C   0  0  0  0  0  1  0  0  0  0  0  0
    8.7050    7.3530   12.0540 O   0  0  0  0  0  0  0  0  0  0  0  0
    8.6730    0.5000    7.9620 O   0  0  0  0  0  0  0  0  0  0  0  0
    9.0320    0.2510    7.0870 H   0  0  0  0  0  0  0  0  0  0  0  0
    3.5850   -1.9340    8.4670 C   0  0  0  0  0  2  0  0  0  0  0  0
    3.5140   -2.9840    9.5820 C   0  0  0  0  0  2  0  0  0  0  0  0
    2.4240   -2.6930   10.6280 C   0  0  0  0  0  3  0  0  0  0  0  0
    1.2110   -3.5920   10.3790 C   0  0  0  0  0  1  0  0  0  0  0  0
    2.9270   -2.8910   12.0590 C   0  0  0  0  0  1  0  0  0  0  0  0
  1 10  1  0  0  0  0
  2  1  2  0  0  0  0
  3  8  1  0  0  0  0
  3  2  1  0  0  0  0
  4  3  2  0  0  0  0
  5  6  2  0  0  0  0
  5  4  1  0  0  0  0
  6  7  1  0  0  0  0
  7  8  2  0  0  0  0
  8  9  1  0  0  0  0
  9 30  1  0  0  0  0
  9 10  1  0  0  0  0
 10 11  2  0  0  0  0
 12 27  1  0  0  0  0
 12 17  1  0  0  0  0
 13 12  2  0  0  0  0
 14 13  1  0  0  0  0
 14 15  2  0  0  0  0
 15 16  1  0  0  0  0
 16 17  2  0  0  0  0
 16 18  1  0  0  0  0
 18 19  2  0  0  0  0
 18 20  2  0  0  0  0
 21 24  1  0  0  0  0
 21 18  1  0  0  0  0
 22  1  1  1  0  0  0
 22 21  1  0  0  0  0
 23 22  1  0  0  0  0
 23 15  1  0  0  0  0
 25 23  1  0  0  0  0
 27 26  1  0  0  0  0
 28  2  1  0  0  0  0
 29 28  1  0  0  0  0
 30 31  1  0  0  0  0
 31 32  1  0  0  0  0
 32 34  1  0  0  0  0
 33 32  1  0  0  0  0
M  END
>  <minimizedAffinity>
-6.82689667

$$$$

 OpenBabel09122222233D

 34 37  0  0  1  0  0  0  0  0999 V2000
    5.0920    0.1320   10.9690 C   0  0  0  0  0  0  0  0  0  0  0  0
    4.0180   -0.1710   11.7220 C   0  0  0  0  0  0  0  0  0  0  0  0
    3.2330   -1.3960   11.4860 C   0  0  0  0  0  0  0  0  0  0  0  0
    2.0460   -1.7090   12.1660 C   0  0  0  0  0  3  0  0  0  0  0  0
    1.3760   -2.9010   11.8980 C   0  0  0  0  0  3  0  0  0  0  0  0
    1.9050   -3.7470   10.9470 C   0  0  0  0  0  3  0  0  0  0  0  0
    3.0260   -3.4670   10.2540 N   0  0  0  0  0  0  0  0  0  0  0  0
    3.6660   -2.3030   10.5110 C   0  0  0  0  0  0  0  0  0  0  0  0
    4.8090   -1.9910    9.7360 N   0  0  0  0  0  0  0  0  0  0  0  0
    5.5230   -0.8290    9.9090 C   0  0  0  0  0  0  0  0  0  0  0  0
    6.5250   -0.5350    9.2510 O   0  0  0  0  0  0  0  0  0  0  0  0
    8.6160    5.5580   10.0820 C   0  0  0  0  0  0  0  0  0  0  0  0
    8.1860    4.9680    8.8910 C   0  0  0  0  0  3  0  0  0  0  0  0
    7.4150    3.8000    8.9040 C   0  0  0  0  0  3  0  0  0  0  0  0
    7.0560    3.1970   10.1120 C   0  0  0  0  0  0  0  0  0  0  0  0
    7.4900    3.7990   11.2790 C   0  0  0  0  0  0  0  0  0  0  0  0
    8.2650    4.9700   11.2910 C   0  0  0  0  0  3  0  0  0  0  0  0
    7.0400    3.0480   12.7840 S   0  0  0  0  0  0  0  0  0  0  0  0
    6.1750    3.9920   13.4550 O   0  0  0  0  0  0  0  0  0  0  0  0
    8.2770    2.6200   13.3990 O   0  0  0  0  0  0  0  0  0  0  0  0
    6.1930    1.7650   12.3770 N   0  0  0  0  0  0  0  0  0  0  0  0
    5.9190    1.4020   11.1520 C   0  0  2  0  0  3  0  0  0  0  0  0
    6.3120    2.0640   10.0770 N   0  0  0  0  0  0  0  0  0  0  0  0
    5.8430    1.1910   13.1330 H   0  0  0  0  0  0  0  0  0  0  0  0
    6.0300    1.6800    9.1620 H   0  0  0  0  0  0  0  0  0  0  0  0
    9.5470    7.5230   11.0600 C   0  0  0  0  0  1  0  0  0  0  0  0
    9.3600    6.6880    9.9210 O   0  0  0  0  0  0  0  0  0  0  0  0
    3.6480    0.6670   12.7680 O   0  0  0  0  0  0  0  0  0  0  0  0
    3.0810    0.1760   13.3960 H   0  0  0  0  0  0  0  0  0  0  0  0
    5.2430   -2.9630    8.7240 C   0  0  0  0  0  2  0  0  0  0  0  0
    4.9130   -2.4850    7.3050 C   0  0  0  0  0  2  0  0  0  0  0  0
    3.4320   -2.6670    6.9290 C   0  0  0  0  0  3  0  0  0  0  0  0
    2.7100   -1.3190    6.9960 C   0  0  0  0  0  1  0  0  0  0  0  0
    3.2590   -3.2750    5.5360 C   0  0  0  0  0  1  0  0  0  0  0  0
  1  2  2  0  0  0  0
  2 28  1  0  0  0  0
  3  2  1  0  0  0  0
  3  4  1  0  0  0  0
  5  4  2  0  0  0  0
  6  5  1  0  0  0  0
  7  8  1  0  0  0  0
  7  6  2  0  0  0  0
  8  3  2  0  0  0  0
  9 10  1  0  0  0  0
  9  8  1  0  0  0  0
 10  1  1  0  0  0  0
 11 10  2  0  0  0  0
 12 17  1  0  0  0  0
 13 14  1  0  0  0  0
 13 12  2  0  0  0  0
 14 15  2  0  0  0  0
 15 16  1  0  0  0  0
 16 17  2  0  0  0  0
 16 18  1  0  0  0  0
 18 20  2  0  0  0  0
 18 19  2  0  0  0  0
 21 18  1  0  0  0  0
 21 24  1  0  0  0  0
 22  1  1  1  0  0  0
 22 21  1  0  0  0  0
 23 15  1  0  0  0  0
 23 22  1  0  0  0  0
 25 23  1  0  0  0  0
 27 12  1  0  0  0  0
 27 26  1  0  0  0  0
 28 29  1  0  0  0  0
 30  9  1  0  0  0  0
 31 30  1  0  0  0  0
 32 33  1  0  0  0  0
 32 31  1  0  0  0  0
 34 32  1  0  0  0  0
M  END
>  <minimizedAffinity>
-6.82282448

$$$$

 OpenBabel09122222233D

 34 37  0  0  1  0  0  0  0  0999 V2000
    6.7090    0.4790   10.6640 C   0  0  0  0  0  0  0  0  0  0  0  0
    7.6180   -0.5140   10.6530 C   0  0  0  0  0  0  0  0  0  0  0  0
    7.2100   -1.9300   10.6030 C   0  0  0  0  0  0  0  0  0  0  0  0
    8.1050   -3.0070   10.6960 C   0  0  0  0  0  3  0  0  0  0  0  0
    7.6390   -4.3170   10.6170 C   0  0  0  0  0  3  0  0  0  0  0  0
    6.2850   -4.5200   10.4570 C   0  0  0  0  0  3  0  0  0  0  0  0
    5.3930   -3.5120   10.3920 N   0  0  0  0  0  0  0  0  0  0  0  0
    5.8510   -2.2420   10.4800 C   0  0  0  0  0  0  0  0  0  0  0  0
    4.9000   -1.1930   10.4710 N   0  0  0  0  0  0  0  0  0  0  0  0
    5.2590    0.1300   10.5670 C   0  0  0  0  0  0  0  0  0  0  0  0
    4.4520    1.0630   10.5570 O   0  0  0  0  0  0  0  0  0  0  0  0
    7.5200    6.6930   12.5010 C   0  0  0  0  0  0  0  0  0  0  0  0
    6.8690    5.9070   13.4540 C   0  0  0  0  0  3  0  0  0  0  0  0
    6.6210    4.5500   13.2210 C   0  0  0  0  0  3  0  0  0  0  0  0
    7.0210    3.9490   12.0250 C   0  0  0  0  0  0  0  0  0  0  0  0
    7.6650    4.7440   11.0960 C   0  0  0  0  0  0  0  0  0  0  0  0
    7.9250    6.1070   11.3080 C   0  0  0  0  0  3  0  0  0  0  0  0
    8.1660    3.9940    9.6060 S   0  0  0  0  0  0  0  0  0  0  0  0
    9.6100    4.0430    9.6020 O   0  0  0  0  0  0  0  0  0  0  0  0
    7.4050    4.6410    8.5600 O   0  0  0  0  0  0  0  0  0  0  0  0
    7.6980    2.4770    9.7220 N   0  0  0  0  0  0  0  0  0  0  0  0
    7.0780    1.9580   10.7480 C   0  0  1  0  0  3  0  0  0  0  0  0
    6.7540    2.6320   11.8380 N   0  0  0  0  0  0  0  0  0  0  0  0
    7.9030    1.8760    8.9350 H   0  0  0  0  0  0  0  0  0  0  0  0
    6.2680    2.1110   12.5840 H   0  0  0  0  0  0  0  0  0  0  0  0
    9.0040    8.4080   13.2360 C   0  0  0  0  0  1  0  0  0  0  0  0
    7.6940    7.9960   12.8600 O   0  0  0  0  0  0  0  0  0  0  0  0
    8.9750   -0.2100   10.6580 O   0  0  0  0  0  0  0  0  0  0  0  0
    9.4840   -0.9800   10.3340 H   0  0  0  0  0  0  0  0  0  0  0  0
    3.4810   -1.5490   10.3360 C   0  0  0  0  0  2  0  0  0  0  0  0
    3.1810   -2.1580    8.9620 C   0  0  0  0  0  2  0  0  0  0  0  0
    3.4680   -1.1990    7.7930 C   0  0  0  0  0  3  0  0  0  0  0  0
    4.5770   -1.7750    6.9090 C   0  0  0  0  0  1  0  0  0  0  0  0
    2.2220   -0.9280    6.9470 C   0  0  0  0  0  1  0  0  0  0  0  0
  2 28  1  0  0  0  0
  2  1  2  0  0  0  0
  3  2  1  0  0  0  0
  3  4  1  0  0  0  0
  5  4  2  0  0  0  0
  6  5  1  0  0  0  0
  7  6  2  0  0  0  0
  7  8  1  0  0  0  0
  8  3  2  0  0  0  0
  9  8  1  0  0  0  0
  9 10  1  0  0  0  0
 10  1  1  0  0  0  0
 11 10  2  0  0  0  0
 12 27  1  0  0  0  0
 12 13  1  0  0  0  0
 14 13  2  0  0  0  0
 15 14  1  0  0  0  0
 16 17  1  0  0  0  0
 16 15  2  0  0  0  0
 17 12  2  0  0  0  0
 18 21  1  0  0  0  0
 18 16  1  0  0  0  0
 19 18  2  0  0  0  0
 20 18  2  0  0  0  0
 21 22  1  0  0  0  0
 22  1  1  6  0  0  0
 22 23  1  0  0  0  0
 23 15  1  0  0  0  0
 23 25  1  0  0  0  0
 24 21  1  0  0  0  0
 27 26  1  0  0  0  0
 29 28  1  0  0  0  0
 30  9  1  0  0  0  0
 31 30  1  0  0  0  0
 32 31  1  0  0  0  0
 33 32  1  0  0  0  0
 34 32  1  0  0  0  0
M  END
>  <minimizedAffinity>
-6.81139278

$$$$

 OpenBabel09122222233D

 34 37  0  0  1  0  0  0  0  0999 V2000
    5.5770    0.9420   10.8270 C   0  0  0  0  0  0  0  0  0  0  0  0
    5.3040    1.9540   11.6720 C   0  0  0  0  0  0  0  0  0  0  0  0
    6.3150    2.9730   12.0060 C   0  0  0  0  0  0  0  0  0  0  0  0
    6.1220    3.9860   12.9580 C   0  0  0  0  0  3  0  0  0  0  0  0
    7.1220    4.9250   13.1980 C   0  0  0  0  0  3  0  0  0  0  0  0
    8.2980    4.8230   12.4850 C   0  0  0  0  0  3  0  0  0  0  0  0
    8.5300    3.8480   11.5840 N   0  0  0  0  0  0  0  0  0  0  0  0
    7.5580    2.9330   11.3640 C   0  0  0  0  0  0  0  0  0  0  0  0
    7.8340    1.8790   10.4590 N   0  0  0  0  0  0  0  0  0  0  0  0
    6.9210    0.8920   10.1750 C   0  0  0  0  0  0  0  0  0  0  0  0
    7.1340   -0.0340    9.3880 O   0  0  0  0  0  0  0  0  0  0  0  0
    1.3360   -4.0210   10.9640 C   0  0  0  0  0  0  0  0  0  0  0  0
    1.8090   -3.6530   12.2260 C   0  0  0  0  0  3  0  0  0  0  0  0
    2.7220   -2.6020   12.3740 C   0  0  0  0  0  3  0  0  0  0  0  0
    3.1810   -1.8960   11.2600 C   0  0  0  0  0  0  0  0  0  0  0  0
    2.6980   -2.2760   10.0210 C   0  0  0  0  0  0  0  0  0  0  0  0
    1.7830   -3.3260    9.8480 C   0  0  0  0  0  3  0  0  0  0  0  0
    3.2690   -1.3930    8.6330 S   0  0  0  0  0  0  0  0  0  0  0  0
    2.1130   -0.7160    8.0890 O   0  0  0  0  0  0  0  0  0  0  0  0
    4.0070   -2.3450    7.8330 O   0  0  0  0  0  0  0  0  0  0  0  0
    4.2810   -0.3090    9.2110 N   0  0  0  0  0  0  0  0  0  0  0  0
    4.5770   -0.1560   10.4740 C   0  0  1  0  0  3  0  0  0  0  0  0
    4.0690   -0.8890   11.4500 N   0  0  0  0  0  0  0  0  0  0  0  0
    4.7220    0.3060    8.5400 H   0  0  0  0  0  0  0  0  0  0  0  0
    4.3780   -0.6710   12.4100 H   0  0  0  0  0  0  0  0  0  0  0  0
   -0.2830   -5.2960   12.1630 C   0  0  0  0  0  1  0  0  0  0  0  0
    0.4550   -5.0600   10.9680 O   0  0  0  0  0  0  0  0  0  0  0  0
    4.0330    2.0680   12.2260 O   0  0  0  0  0  0  0  0  0  0  0  0
    3.8950    2.9830   12.5410 H   0  0  0  0  0  0  0  0  0  0  0  0
    9.1450    1.8640    9.7960 C   0  0  0  0  0  2  0  0  0  0  0  0
    9.0190    2.1240    8.2910 C   0  0  0  0  0  2  0  0  0  0  0  0
    9.0840    3.6170    7.9210 C   0  0  0  0  0  3  0  0  0  0  0  0
    9.5740    3.7740    6.4800 C   0  0  0  0  0  1  0  0  0  0  0  0
    7.7310    4.3130    8.0850 C   0  0  0  0  0  1  0  0  0  0  0  0
  1  2  2  0  0  0  0
  2  3  1  0  0  0  0
  2 28  1  0  0  0  0
  3  4  1  0  0  0  0
  4  5  2  0  0  0  0
  6  5  1  0  0  0  0
  7  6  2  0  0  0  0
  8  7  1  0  0  0  0
  8  3  2  0  0  0  0
  9  8  1  0  0  0  0
 10  9  1  0  0  0  0
 10  1  1  0  0  0  0
 11 10  2  0  0  0  0
 12 27  1  0  0  0  0
 12 13  1  0  0  0  0
 13 14  2  0  0  0  0
 15 23  1  0  0  0  0
 15 14  1  0  0  0  0
 16 15  2  0  0  0  0
 17 16  1  0  0  0  0
 17 12  2  0  0  0  0
 18 21  1  0  0  0  0
 18 16  1  0  0  0  0
 19 18  2  0  0  0  0
 20 18  2  0  0  0  0
 21 22  1  0  0  0  0
 22  1  1  6  0  0  0
 22 23  1  0  0  0  0
 23 25  1  0  0  0  0
 24 21  1  0  0  0  0
 27 26  1  0  0  0  0
 28 29  1  0  0  0  0
 30  9  1  0  0  0  0
 31 30  1  0  0  0  0
 32 34  1  0  0  0  0
 32 31  1  0  0  0  0
 33 32  1  0  0  0  0
M  END
>  <minimizedAffinity>
-6.68722963

$$$$
