
 OpenBabel09122222393D

 34 37  0  0  1  0  0  0  0  0999 V2000
    6.6610   -0.2670    8.4870 C   0  0  0  0  0  0  0  0  0  0  0  0
    5.4690   -0.7870    8.1360 C   0  0  0  0  0  0  0  0  0  0  0  0
    5.3600   -1.8390    7.1090 C   0  0  0  0  0  0  0  0  0  0  0  0
    4.1410   -2.3420    6.6280 C   0  0  0  0  0  3  0  0  0  0  0  0
    4.1270   -3.3530    5.6710 C   0  0  0  0  0  3  0  0  0  0  0  0
    5.3340   -3.8320    5.2090 C   0  0  0  0  0  3  0  0  0  0  0  0
    6.5230   -3.3550    5.6260 N   0  0  0  0  0  0  0  0  0  0  0  0
    6.5300   -2.3650    6.5480 C   0  0  0  0  0  0  0  0  0  0  0  0
    7.7830   -1.8300    6.9360 N   0  0  0  0  0  0  0  0  0  0  0  0
    7.8990   -0.8150    7.8540 C   0  0  0  0  0  0  0  0  0  0  0  0
    8.9780   -0.3340    8.2120 O   0  0  0  0  0  0  0  0  0  0  0  0
    7.9020    5.3480   11.5810 C   0  0  0  0  0  0  0  0  0  0  0  0
    8.1490    5.3980   10.2070 C   0  0  0  0  0  3  0  0  0  0  0  0
    7.9290    4.2800    9.3950 C   0  0  0  0  0  3  0  0  0  0  0  0
    7.4550    3.0850    9.9410 C   0  0  0  0  0  0  0  0  0  0  0  0
    7.2150    3.0570   11.3030 C   0  0  0  0  0  0  0  0  0  0  0  0
    7.4290    4.1660   12.1370 C   0  0  0  0  0  3  0  0  0  0  0  0
    6.6220    1.5680   11.9830 S   0  0  0  0  0  0  0  0  0  0  0  0
    5.2920    1.8560   12.4700 O   0  0  0  0  0  0  0  0  0  0  0  0
    7.6520    1.1070   12.8870 O   0  0  0  0  0  0  0  0  0  0  0  0
    6.5200    0.5580   10.7580 N   0  0  0  0  0  0  0  0  0  0  0  0
    6.8240    0.8440    9.5190 C   0  0  1  0  0  3  0  0  0  0  0  0
    7.2620    2.0250    9.1170 N   0  0  0  0  0  0  0  0  0  0  0  0
    6.1900   -0.3760   10.9630 H   0  0  0  0  0  0  0  0  0  0  0  0
    7.4660    2.1310    8.1110 H   0  0  0  0  0  0  0  0  0  0  0  0
    7.1060    7.0760   13.0170 C   0  0  0  0  0  1  0  0  0  0  0  0
    8.1610    6.5060   12.2490 O   0  0  0  0  0  0  0  0  0  0  0  0
    4.3110   -0.3520    8.7710 O   0  0  0  0  0  0  0  0  0  0  0  0
    3.6030   -1.0170    8.6520 H   0  0  0  0  0  0  0  0  0  0  0  0
    8.9940   -2.4040    6.3340 C   0  0  0  0  0  2  0  0  0  0  0  0
    9.5890   -1.4760    5.2700 C   0  0  0  0  0  2  0  0  0  0  0  0
    9.1330   -1.8150    3.8390 C   0  0  0  0  0  3  0  0  0  0  0  0
    9.4250   -0.6360    2.9080 C   0  0  0  0  0  1  0  0  0  0  0  0
    9.8080   -3.0780    3.3000 C   0  0  0  0  0  1  0  0  0  0  0  0
  2  1  2  0  0  0  0
  2 28  1  0  0  0  0
  3  2  1  0  0  0  0
  4  3  1  0  0  0  0
  5  4  2  0  0  0  0
  6  7  2  0  0  0  0
  6  5  1  0  0  0  0
  7  8  1  0  0  0  0
  8  9  1  0  0  0  0
  8  3  2  0  0  0  0
  9 10  1  0  0  0  0
 10 11  2  0  0  0  0
 10  1  1  0  0  0  0
 12 17  1  0  0  0  0
 12 27  1  0  0  0  0
 13 12  2  0  0  0  0
 14 15  2  0  0  0  0
 14 13  1  0  0  0  0
 15 16  1  0  0  0  0
 16 18  1  0  0  0  0
 16 17  2  0  0  0  0
 18 19  2  0  0  0  0
 18 20  2  0  0  0  0
 21 24  1  0  0  0  0
 21 18  1  0  0  0  0
 22  1  1  1  0  0  0
 22 21  1  0  0  0  0
 23 22  1  0  0  0  0
 23 15  1  0  0  0  0
 25 23  1  0  0  0  0
 27 26  1  0  0  0  0
 29 28  1  0  0  0  0
 30  9  1  0  0  0  0
 31 30  1  0  0  0  0
 32 31  1  0  0  0  0
 33 32  1  0  0  0  0
 34 32  1  0  0  0  0
M  END
>  <minimizedAffinity>
-7.05556631

$$$$
