
 OpenBabel09122222393D

 34 37  0  0  1  0  0  0  0  0999 V2000
    5.0920    0.1320   10.9690 C   0  0  0  0  0  0  0  0  0  0  0  0
    4.0180   -0.1710   11.7220 C   0  0  0  0  0  0  0  0  0  0  0  0
    3.2330   -1.3960   11.4860 C   0  0  0  0  0  0  0  0  0  0  0  0
    2.0460   -1.7090   12.1660 C   0  0  0  0  0  3  0  0  0  0  0  0
    1.3760   -2.9010   11.8980 C   0  0  0  0  0  3  0  0  0  0  0  0
    1.9050   -3.7470   10.9470 C   0  0  0  0  0  3  0  0  0  0  0  0
    3.0260   -3.4670   10.2540 N   0  0  0  0  0  0  0  0  0  0  0  0
    3.6660   -2.3030   10.5110 C   0  0  0  0  0  0  0  0  0  0  0  0
    4.8090   -1.9910    9.7360 N   0  0  0  0  0  0  0  0  0  0  0  0
    5.5230   -0.8290    9.9090 C   0  0  0  0  0  0  0  0  0  0  0  0
    6.5250   -0.5350    9.2510 O   0  0  0  0  0  0  0  0  0  0  0  0
    8.6160    5.5580   10.0820 C   0  0  0  0  0  0  0  0  0  0  0  0
    8.1860    4.9680    8.8910 C   0  0  0  0  0  3  0  0  0  0  0  0
    7.4150    3.8000    8.9040 C   0  0  0  0  0  3  0  0  0  0  0  0
    7.0560    3.1970   10.1120 C   0  0  0  0  0  0  0  0  0  0  0  0
    7.4900    3.7990   11.2790 C   0  0  0  0  0  0  0  0  0  0  0  0
    8.2650    4.9700   11.2910 C   0  0  0  0  0  3  0  0  0  0  0  0
    7.0400    3.0480   12.7840 S   0  0  0  0  0  0  0  0  0  0  0  0
    6.1750    3.9920   13.4550 O   0  0  0  0  0  0  0  0  0  0  0  0
    8.2770    2.6200   13.3990 O   0  0  0  0  0  0  0  0  0  0  0  0
    6.1930    1.7650   12.3770 N   0  0  0  0  0  0  0  0  0  0  0  0
    5.9190    1.4020   11.1520 C   0  0  2  0  0  3  0  0  0  0  0  0
    6.3120    2.0640   10.0770 N   0  0  0  0  0  0  0  0  0  0  0  0
    5.8430    1.1910   13.1330 H   0  0  0  0  0  0  0  0  0  0  0  0
    6.0300    1.6800    9.1620 H   0  0  0  0  0  0  0  0  0  0  0  0
    9.5470    7.5230   11.0600 C   0  0  0  0  0  1  0  0  0  0  0  0
    9.3600    6.6880    9.9210 O   0  0  0  0  0  0  0  0  0  0  0  0
    3.6480    0.6670   12.7680 O   0  0  0  0  0  0  0  0  0  0  0  0
    3.0810    0.1760   13.3960 H   0  0  0  0  0  0  0  0  0  0  0  0
    5.2430   -2.9630    8.7240 C   0  0  0  0  0  2  0  0  0  0  0  0
    4.9130   -2.4850    7.3050 C   0  0  0  0  0  2  0  0  0  0  0  0
    3.4320   -2.6670    6.9290 C   0  0  0  0  0  3  0  0  0  0  0  0
    2.7100   -1.3190    6.9960 C   0  0  0  0  0  1  0  0  0  0  0  0
    3.2590   -3.2750    5.5360 C   0  0  0  0  0  1  0  0  0  0  0  0
  1  2  2  0  0  0  0
  2 28  1  0  0  0  0
  3  2  1  0  0  0  0
  3  4  1  0  0  0  0
  5  4  2  0  0  0  0
  6  5  1  0  0  0  0
  7  8  1  0  0  0  0
  7  6  2  0  0  0  0
  8  3  2  0  0  0  0
  9 10  1  0  0  0  0
  9  8  1  0  0  0  0
 10  1  1  0  0  0  0
 11 10  2  0  0  0  0
 12 17  1  0  0  0  0
 13 14  1  0  0  0  0
 13 12  2  0  0  0  0
 14 15  2  0  0  0  0
 15 16  1  0  0  0  0
 16 17  2  0  0  0  0
 16 18  1  0  0  0  0
 18 20  2  0  0  0  0
 18 19  2  0  0  0  0
 21 18  1  0  0  0  0
 21 24  1  0  0  0  0
 22  1  1  1  0  0  0
 22 21  1  0  0  0  0
 23 15  1  0  0  0  0
 23 22  1  0  0  0  0
 25 23  1  0  0  0  0
 27 12  1  0  0  0  0
 27 26  1  0  0  0  0
 28 29  1  0  0  0  0
 30  9  1  0  0  0  0
 31 30  1  0  0  0  0
 32 33  1  0  0  0  0
 32 31  1  0  0  0  0
 34 32  1  0  0  0  0
M  END
>  <minimizedAffinity>
-6.82282448

$$$$
