
 OpenBabel09122222393D

 34 37  0  0  1  0  0  0  0  0999 V2000
    5.9020    0.9180   11.1190 C   0  0  0  0  0  0  0  0  0  0  0  0
    4.6300    0.7650   11.5360 C   0  0  0  0  0  0  0  0  0  0  0  0
    4.0170   -0.5700   11.6610 C   0  0  0  0  0  0  0  0  0  0  0  0
    2.6690   -0.7860   11.9870 C   0  0  0  0  0  3  0  0  0  0  0  0
    2.1740   -2.0820   12.1080 C   0  0  0  0  0  3  0  0  0  0  0  0
    3.0380   -3.1340   11.8900 C   0  0  0  0  0  3  0  0  0  0  0  0
    4.3310   -2.9650   11.5490 N   0  0  0  0  0  0  0  0  0  0  0  0
    4.8030   -1.7040   11.4220 C   0  0  0  0  0  0  0  0  0  0  0  0
    6.1470   -1.5380   11.0050 N   0  0  0  0  0  0  0  0  0  0  0  0
    6.7180   -0.3000   10.8350 C   0  0  0  0  0  0  0  0  0  0  0  0
    7.8870   -0.1280   10.4770 O   0  0  0  0  0  0  0  0  0  0  0  0
    8.2910    6.9400   11.9440 C   0  0  0  0  0  0  0  0  0  0  0  0
    7.6850    6.4150   13.0880 C   0  0  0  0  0  3  0  0  0  0  0  0
    7.1270    5.1320   13.0830 C   0  0  0  0  0  3  0  0  0  0  0  0
    7.1630    4.3440   11.9300 C   0  0  0  0  0  0  0  0  0  0  0  0
    7.7680    4.8820   10.8090 C   0  0  0  0  0  0  0  0  0  0  0  0
    8.3350    6.1660   10.7910 C   0  0  0  0  0  3  0  0  0  0  0  0
    7.8150    3.8990    9.3730 S   0  0  0  0  0  0  0  0  0  0  0  0
    9.2130    3.6220    9.1260 O   0  0  0  0  0  0  0  0  0  0  0  0
    7.0190    4.5960    8.3880 O   0  0  0  0  0  0  0  0  0  0  0  0
    7.0800    2.5440    9.7670 N   0  0  0  0  0  0  0  0  0  0  0  0
    6.5720    2.2780   10.9420 C   0  0  1  0  0  3  0  0  0  0  0  0
    6.6040    3.1090   11.9690 N   0  0  0  0  0  0  0  0  0  0  0  0
    7.0060    1.8390    9.0460 H   0  0  0  0  0  0  0  0  0  0  0  0
    6.1720    2.7850   12.8480 H   0  0  0  0  0  0  0  0  0  0  0  0
    8.8940    8.7180   13.4130 C   0  0  0  0  0  1  0  0  0  0  0  0
    8.7900    8.1980   12.0910 O   0  0  0  0  0  0  0  0  0  0  0  0
    3.8780    1.8800   11.8870 O   0  0  0  0  0  0  0  0  0  0  0  0
    3.1280    1.6050   12.4510 H   0  0  0  0  0  0  0  0  0  0  0  0
    6.9480   -2.7450   10.7660 C   0  0  0  0  0  2  0  0  0  0  0  0
    6.8950   -3.1750    9.2960 C   0  0  0  0  0  2  0  0  0  0  0  0
    8.2860   -3.3670    8.6650 C   0  0  0  0  0  3  0  0  0  0  0  0
    8.5650   -2.2390    7.6680 C   0  0  0  0  0  1  0  0  0  0  0  0
    9.3970   -3.4140    9.7150 C   0  0  0  0  0  1  0  0  0  0  0  0
  1  2  2  0  0  0  0
  2  3  1  0  0  0  0
  2 28  1  0  0  0  0
  3  4  1  0  0  0  0
  4  5  2  0  0  0  0
  6  5  1  0  0  0  0
  7  6  2  0  0  0  0
  8  7  1  0  0  0  0
  8  3  2  0  0  0  0
  9  8  1  0  0  0  0
 10  9  1  0  0  0  0
 10  1  1  0  0  0  0
 11 10  2  0  0  0  0
 12 27  1  0  0  0  0
 12 13  1  0  0  0  0
 14 13  2  0  0  0  0
 15 23  1  0  0  0  0
 15 14  1  0  0  0  0
 16 15  2  0  0  0  0
 17 16  1  0  0  0  0
 17 12  2  0  0  0  0
 18 21  1  0  0  0  0
 18 16  1  0  0  0  0
 19 18  2  0  0  0  0
 20 18  2  0  0  0  0
 21 22  1  0  0  0  0
 22  1  1  6  0  0  0
 22 23  1  0  0  0  0
 23 25  1  0  0  0  0
 24 21  1  0  0  0  0
 27 26  1  0  0  0  0
 28 29  1  0  0  0  0
 30  9  1  0  0  0  0
 31 30  1  0  0  0  0
 32 31  1  0  0  0  0
 32 34  1  0  0  0  0
 33 32  1  0  0  0  0
M  END
>  <minimizedAffinity>
-7.22404289

$$$$
