
 OpenBabel08272217053D

 27 30  0  0  1  0  0  0  0  0999 V2000
  105.0060   54.0470    5.4240 C   0  0  0  0  0  0  0  0  0  0  0  0
  105.1380   52.8040    6.1360 C   0  0  0  0  0  3  0  0  0  0  0  0
  106.1230   52.8220    7.1000 C   0  0  0  0  0  0  0  0  0  0  0  0
  106.9270   54.3300    7.1040 S   0  0  0  0  0  0  0  0  0  0  0  0
  105.9290   54.9860    5.8620 C   0  0  0  0  0  0  0  0  0  0  0  0
  104.2190   53.8690    3.0420 C   0  0  0  0  0  0  0  0  0  0  0  0
  103.2460   54.2190    2.0840 C   0  0  0  0  0  3  0  0  0  0  0  0
  102.0950   54.9240    2.4420 C   0  0  0  0  0  3  0  0  0  0  0  0
  101.8900   55.2960    3.7660 C   0  0  0  0  0  3  0  0  0  0  0  0
  102.8440   54.9730    4.7300 C   0  0  0  0  0  3  0  0  0  0  0  0
  104.0050   54.2640    4.3820 C   0  0  0  0  0  0  0  0  0  0  0  0
  108.7970   51.3710    0.3860 C   0  0  0  0  0  1  0  0  0  0  0  0
  107.5460   52.1840    0.7160 C   0  0  2  0  0  3  0  0  0  0  0  0
  107.8460   53.2130    1.8130 C   0  0  0  0  0  2  0  0  0  0  0  0
  106.5990   54.0080    2.2020 C   0  0  0  0  0  2  0  0  0  0  0  0
  105.4500   53.0750    2.6210 C   0  0  2  0  0  3  0  0  0  0  0  0
  105.1430   52.0530    1.5120 C   0  0  0  0  0  2  0  0  0  0  0  0
  106.3930   51.2600    1.1280 C   0  0  0  0  0  2  0  0  0  0  0  0
  106.5250   51.7480    8.0200 C   0  0  0  0  0  0  0  0  0  0  0  0
  106.8000   52.0020    9.3720 C   0  0  0  0  0  3  0  0  0  0  0  0
  107.1570   50.9640   10.2380 C   0  0  0  0  0  3  0  0  0  0  0  0
  107.2430   49.6570    9.7640 C   0  0  0  0  0  3  0  0  0  0  0  0
  106.9700   49.3870    8.4260 C   0  0  0  0  0  3  0  0  0  0  0  0
  106.6110   50.4240    7.5610 C   0  0  0  0  0  3  0  0  0  0  0  0
  106.1030   56.3980    5.3890 C   0  0  0  0  0  0  0  0  0  0  0  0
  105.4170   57.2920    5.9840 O   0  0  0  0  0  1  0  0  0  0  0  0
  106.9080   56.6230    4.4340 O   0  0  0  0  0  0  0  0  0  0  0  0
  1  5  2  0  0  0  0
  1  2  1  0  0  0  0
  2  3  2  0  0  0  0
  3  4  1  0  0  0  0
  3 19  1  0  0  0  0
  5  4  1  0  0  0  0
  6 11  1  0  0  0  0
  7  8  1  0  0  0  0
  7  6  2  0  0  0  0
  8  9  2  0  0  0  0
  9 10  1  0  0  0  0
 11 10  2  0  0  0  0
 11  1  1  0  0  0  0
 13 12  1  1  0  0  0
 13 18  1  0  0  0  0
 13 14  1  0  0  0  0
 14 15  1  0  0  0  0
 15 16  1  0  0  0  0
 16  6  1  6  0  0  0
 17 16  1  0  0  0  0
 18 17  1  0  0  0  0
 19 20  1  0  0  0  0
 20 21  2  0  0  0  0
 22 21  1  0  0  0  0
 23 22  2  0  0  0  0
 24 19  2  0  0  0  0
 24 23  1  0  0  0  0
 25  5  1  0  0  0  0
 25 26  1  0  0  0  0
 27 25  2  0  0  0  0
M  END
>  <minimizedAffinity>
-8.30644321

$$$$
