
 OpenBabel08272217053D

 27 30  0  0  1  0  0  0  0  0999 V2000
  111.6240   69.1360   -0.3420 C   0  0  0  0  0  0  0  0  0  0  0  0
  110.5450   68.3950   -0.9390 C   0  0  0  0  0  3  0  0  0  0  0  0
  110.9030   67.1260   -1.3420 C   0  0  0  0  0  0  0  0  0  0  0  0
  112.5650   66.8520   -1.0480 S   0  0  0  0  0  0  0  0  0  0  0  0
  112.8020   68.4010   -0.3300 C   0  0  0  0  0  0  0  0  0  0  0  0
  110.9750   70.7330    1.4880 C   0  0  0  0  0  0  0  0  0  0  0  0
  110.7480   72.0710    1.8720 C   0  0  0  0  0  3  0  0  0  0  0  0
  111.0080   73.1310    1.0000 C   0  0  0  0  0  3  0  0  0  0  0  0
  111.5010   72.8770   -0.2750 C   0  0  0  0  0  3  0  0  0  0  0  0
  111.7210   71.5620   -0.6830 C   0  0  0  0  0  3  0  0  0  0  0  0
  111.4640   70.4890    0.1850 C   0  0  0  0  0  0  0  0  0  0  0  0
  110.1680   67.2190    6.0980 C   0  0  0  0  0  1  0  0  0  0  0  0
  110.4770   68.4000    5.1800 C   0  0  2  0  0  3  0  0  0  0  0  0
  109.2350   68.7940    4.3710 C   0  0  0  0  0  2  0  0  0  0  0  0
  109.5280   69.9420    3.4040 C   0  0  0  0  0  2  0  0  0  0  0  0
  110.7060   69.6030    2.4750 C   0  0  2  0  0  3  0  0  0  0  0  0
  111.9540   69.2210    3.2910 C   0  0  0  0  0  2  0  0  0  0  0  0
  111.6560   68.0720    4.2550 C   0  0  0  0  0  2  0  0  0  0  0  0
  110.0660   66.0940   -1.9700 C   0  0  0  0  0  0  0  0  0  0  0  0
  108.6820   66.0330   -1.7480 C   0  0  0  0  0  3  0  0  0  0  0  0
  107.8980   65.0580   -2.3720 C   0  0  0  0  0  3  0  0  0  0  0  0
  108.4870   64.1320   -3.2300 C   0  0  0  0  0  3  0  0  0  0  0  0
  109.8590   64.1800   -3.4650 C   0  0  0  0  0  3  0  0  0  0  0  0
  110.6420   65.1560   -2.8410 C   0  0  0  0  0  3  0  0  0  0  0  0
  114.1370   68.8090    0.2180 C   0  0  0  0  0  0  0  0  0  0  0  0
  114.7700   69.7080   -0.4230 O   0  0  0  0  0  0  0  0  0  0  0  0
  114.5580   68.2430    1.2730 O   0  0  0  0  0  1  0  0  0  0  0  0
  1  5  2  0  0  0  0
  1 11  1  0  0  0  0
  2  1  1  0  0  0  0
  3  4  1  0  0  0  0
  3  2  2  0  0  0  0
  4  5  1  0  0  0  0
  5 25  1  0  0  0  0
  6  7  1  0  0  0  0
  8  7  2  0  0  0  0
  9  8  1  0  0  0  0
 10  9  2  0  0  0  0
 10 11  1  0  0  0  0
 11  6  2  0  0  0  0
 13 12  1  6  0  0  0
 14 13  1  0  0  0  0
 15 14  1  0  0  0  0
 16  6  1  1  0  0  0
 16 17  1  0  0  0  0
 16 15  1  0  0  0  0
 17 18  1  0  0  0  0
 18 13  1  0  0  0  0
 19 20  1  0  0  0  0
 19  3  1  0  0  0  0
 21 20  2  0  0  0  0
 22 21  1  0  0  0  0
 23 22  2  0  0  0  0
 23 24  1  0  0  0  0
 24 19  2  0  0  0  0
 25 27  1  0  0  0  0
 26 25  2  0  0  0  0
M  END
>  <minimizedAffinity>
-8.39850426

$$$$
