
 OpenBabel08272217053D

 27 30  0  0  1  0  0  0  0  0999 V2000
   89.5480   43.0940    0.1780 C   0  0  0  0  0  0  0  0  0  0  0  0
   90.1900   42.1450    1.0470 C   0  0  0  0  0  3  0  0  0  0  0  0
   91.4480   41.7720    0.6230 C   0  0  0  0  0  0  0  0  0  0  0  0
   91.8290   42.5310   -0.8600 S   0  0  0  0  0  0  0  0  0  0  0  0
   90.3450   43.4040   -0.9160 C   0  0  0  0  0  0  0  0  0  0  0  0
   88.0510   44.8670    1.1470 C   0  0  0  0  0  0  0  0  0  0  0  0
   86.7370   45.2720    1.4600 C   0  0  0  0  0  3  0  0  0  0  0  0
   85.6330   44.5060    1.0810 C   0  0  0  0  0  3  0  0  0  0  0  0
   85.8160   43.3180    0.3820 C   0  0  0  0  0  3  0  0  0  0  0  0
   87.1070   42.8900    0.0730 C   0  0  0  0  0  3  0  0  0  0  0  0
   88.2250   43.6520    0.4480 C   0  0  0  0  0  0  0  0  0  0  0  0
   91.9680   48.3890    3.7000 C   0  0  0  0  0  1  0  0  0  0  0  0
   90.7340   47.5530    3.3640 C   0  0  2  0  0  3  0  0  0  0  0  0
   91.1090   46.0730    3.2210 C   0  0  0  0  0  2  0  0  0  0  0  0
   89.9020   45.2170    2.8330 C   0  0  0  0  0  2  0  0  0  0  0  0
   89.2330   45.7420    1.5520 C   0  0  2  0  0  3  0  0  0  0  0  0
   88.8460   47.2240    1.7050 C   0  0  0  0  0  2  0  0  0  0  0  0
   90.0560   48.0760    2.0910 C   0  0  0  0  0  2  0  0  0  0  0  0
   92.3910   40.8430    1.2620 C   0  0  0  0  0  0  0  0  0  0  0  0
   93.3570   40.1470    0.5180 C   0  0  0  0  0  3  0  0  0  0  0  0
   94.2620   39.2860    1.1460 C   0  0  0  0  0  3  0  0  0  0  0  0
   94.2150   39.1100    2.5270 C   0  0  0  0  0  3  0  0  0  0  0  0
   93.2650   39.7940    3.2810 C   0  0  0  0  0  3  0  0  0  0  0  0
   92.3620   40.6570    2.6530 C   0  0  0  0  0  3  0  0  0  0  0  0
   90.0450   44.3590   -2.0340 C   0  0  0  0  0  0  0  0  0  0  0  0
   90.1960   45.5980   -1.7860 O   0  0  0  0  0  1  0  0  0  0  0  0
   89.6610   43.8870   -3.1470 O   0  0  0  0  0  0  0  0  0  0  0  0
  1 11  1  0  0  0  0
  1  2  1  0  0  0  0
  3  2  2  0  0  0  0
  3 19  1  0  0  0  0
  4  3  1  0  0  0  0
  5  4  1  0  0  0  0
  5  1  2  0  0  0  0
  6  7  1  0  0  0  0
  8  7  2  0  0  0  0
  9  8  1  0  0  0  0
 10  9  2  0  0  0  0
 10 11  1  0  0  0  0
 11  6  2  0  0  0  0
 13 12  1  6  0  0  0
 14 13  1  0  0  0  0
 15 14  1  0  0  0  0
 16  6  1  1  0  0  0
 16 17  1  0  0  0  0
 16 15  1  0  0  0  0
 17 18  1  0  0  0  0
 18 13  1  0  0  0  0
 19 24  1  0  0  0  0
 20 21  1  0  0  0  0
 20 19  2  0  0  0  0
 21 22  2  0  0  0  0
 22 23  1  0  0  0  0
 24 23  2  0  0  0  0
 25 26  1  0  0  0  0
 25  5  1  0  0  0  0
 27 25  2  0  0  0  0
M  END
>  <minimizedAffinity>
-7.63071728

$$$$
