
 OpenBabel08272217053D

 27 30  0  0  1  0  0  0  0  0999 V2000
  107.8570   53.5540    3.9200 C   0  0  0  0  0  0  0  0  0  0  0  0
  107.5560   54.9560    4.0260 C   0  0  0  0  0  3  0  0  0  0  0  0
  107.6090   55.4360    5.3180 C   0  0  0  0  0  0  0  0  0  0  0  0
  107.9690   54.1710    6.4100 S   0  0  0  0  0  0  0  0  0  0  0  0
  108.1130   52.9910    5.1630 C   0  0  0  0  0  0  0  0  0  0  0  0
  106.7120   52.5030    1.9430 C   0  0  0  0  0  0  0  0  0  0  0  0
  106.8350   51.7200    0.7770 C   0  0  0  0  0  3  0  0  0  0  0  0
  108.0840   51.2980    0.3150 C   0  0  0  0  0  3  0  0  0  0  0  0
  109.2370   51.6490    1.0070 C   0  0  0  0  0  3  0  0  0  0  0  0
  109.1400   52.4120    2.1700 C   0  0  0  0  0  3  0  0  0  0  0  0
  107.8900   52.8430    2.6440 C   0  0  0  0  0  0  0  0  0  0  0  0
  101.1480   54.2110    2.5620 C   0  0  0  0  0  1  0  0  0  0  0  0
  102.5010   53.7660    2.0120 C   0  0  2  0  0  3  0  0  0  0  0  0
  102.8770   52.3830    2.5570 C   0  0  0  0  0  2  0  0  0  0  0  0
  104.2520   51.9320    2.0650 C   0  0  0  0  0  2  0  0  0  0  0  0
  105.3350   52.9700    2.4040 C   0  0  2  0  0  3  0  0  0  0  0  0
  104.9620   54.3530    1.8420 C   0  0  0  0  0  2  0  0  0  0  0  0
  103.5860   54.8000    2.3390 C   0  0  0  0  0  2  0  0  0  0  0  0
  107.3770   56.8060    5.7980 C   0  0  0  0  0  0  0  0  0  0  0  0
  106.0820   57.3240    5.9470 C   0  0  0  0  0  3  0  0  0  0  0  0
  105.8790   58.6220    6.4270 C   0  0  0  0  0  3  0  0  0  0  0  0
  106.9700   59.4190    6.7650 C   0  0  0  0  0  3  0  0  0  0  0  0
  108.2630   58.9200    6.6260 C   0  0  0  0  0  3  0  0  0  0  0  0
  108.4640   57.6220    6.1480 C   0  0  0  0  0  3  0  0  0  0  0  0
  108.4800   51.5710    5.4730 C   0  0  0  0  0  0  0  0  0  0  0  0
  109.7070   51.3360    5.7230 O   0  0  0  0  0  1  0  0  0  0  0  0
  107.5640   50.6930    5.4680 O   0  0  0  0  0  0  0  0  0  0  0  0
  1  2  1  0  0  0  0
  1  5  2  0  0  0  0
  2  3  2  0  0  0  0
  3 19  1  0  0  0  0
  3  4  1  0  0  0  0
  5 25  1  0  0  0  0
  5  4  1  0  0  0  0
  6 11  1  0  0  0  0
  7  6  2  0  0  0  0
  8  7  1  0  0  0  0
  8  9  2  0  0  0  0
  9 10  1  0  0  0  0
 10 11  2  0  0  0  0
 11  1  1  0  0  0  0
 13 18  1  0  0  0  0
 13 14  1  0  0  0  0
 13 12  1  1  0  0  0
 15 16  1  0  0  0  0
 15 14  1  0  0  0  0
 16  6  1  6  0  0  0
 17 18  1  0  0  0  0
 17 16  1  0  0  0  0
 19 20  2  0  0  0  0
 19 24  1  0  0  0  0
 20 21  1  0  0  0  0
 21 22  2  0  0  0  0
 23 22  1  0  0  0  0
 24 23  2  0  0  0  0
 25 26  1  0  0  0  0
 27 25  2  0  0  0  0
M  END
>  <minimizedAffinity>
-8.32047844

$$$$
