
 OpenBabel08272217053D

 27 30  0  0  1  0  0  0  0  0999 V2000
  105.9370   51.7960    4.5140 C   0  0  0  0  0  0  0  0  0  0  0  0
  105.8670   51.8230    5.9510 C   0  0  0  0  0  3  0  0  0  0  0  0
  106.6970   50.9060    6.5610 C   0  0  0  0  0  0  0  0  0  0  0  0
  107.5200   49.9730    5.3890 S   0  0  0  0  0  0  0  0  0  0  0  0
  106.8200   50.8240    4.0640 C   0  0  0  0  0  0  0  0  0  0  0  0
  105.5350   54.0550    3.4850 C   0  0  0  0  0  0  0  0  0  0  0  0
  104.6740   54.8830    2.7360 C   0  0  0  0  0  3  0  0  0  0  0  0
  103.4960   54.3850    2.1740 C   0  0  0  0  0  3  0  0  0  0  0  0
  103.1540   53.0490    2.3460 C   0  0  0  0  0  3  0  0  0  0  0  0
  103.9830   52.2130    3.0940 C   0  0  0  0  0  3  0  0  0  0  0  0
  105.1690   52.7020    3.6640 C   0  0  0  0  0  0  0  0  0  0  0  0
  110.4930   56.9100    4.7180 C   0  0  0  0  0  1  0  0  0  0  0  0
  109.2240   56.3770    4.0560 C   0  0  2  0  0  3  0  0  0  0  0  0
  107.9920   56.7070    4.9090 C   0  0  0  0  0  2  0  0  0  0  0  0
  106.7110   56.1400    4.2980 C   0  0  0  0  0  2  0  0  0  0  0  0
  106.8260   54.6250    4.0620 C   0  0  2  0  0  3  0  0  0  0  0  0
  108.0550   54.2990    3.1940 C   0  0  0  0  0  2  0  0  0  0  0  0
  109.3350   54.8670    3.8100 C   0  0  0  0  0  2  0  0  0  0  0  0
  106.8960   50.6640    7.9970 C   0  0  0  0  0  0  0  0  0  0  0  0
  106.9510   51.7190    8.9210 C   0  0  0  0  0  3  0  0  0  0  0  0
  107.1170   51.4690   10.2860 C   0  0  0  0  0  3  0  0  0  0  0  0
  107.2280   50.1590   10.7470 C   0  0  0  0  0  3  0  0  0  0  0  0
  107.1730   49.1000    9.8450 C   0  0  0  0  0  3  0  0  0  0  0  0
  107.0050   49.3510    8.4800 C   0  0  0  0  0  3  0  0  0  0  0  0
  107.1840   50.4940    2.6480 C   0  0  0  0  0  0  0  0  0  0  0  0
  106.4560   49.6340    2.0530 O   0  0  0  0  0  0  0  0  0  0  0  0
  108.1830   51.0780    2.1260 O   0  0  0  0  0  1  0  0  0  0  0  0
  1  2  1  0  0  0  0
  2  3  2  0  0  0  0
  3 19  1  0  0  0  0
  4  3  1  0  0  0  0
  5  1  2  0  0  0  0
  5  4  1  0  0  0  0
  6 11  1  0  0  0  0
  7  6  2  0  0  0  0
  8  9  2  0  0  0  0
  8  7  1  0  0  0  0
  9 10  1  0  0  0  0
 10 11  2  0  0  0  0
 11  1  1  0  0  0  0
 13 12  1  1  0  0  0
 13 14  1  0  0  0  0
 15 14  1  0  0  0  0
 16  6  1  6  0  0  0
 16 15  1  0  0  0  0
 17 18  1  0  0  0  0
 17 16  1  0  0  0  0
 18 13  1  0  0  0  0
 19 24  2  0  0  0  0
 19 20  1  0  0  0  0
 20 21  2  0  0  0  0
 21 22  1  0  0  0  0
 23 22  2  0  0  0  0
 24 23  1  0  0  0  0
 25  5  1  0  0  0  0
 26 25  2  0  0  0  0
 27 25  1  0  0  0  0
M  END
>  <minimizedAffinity>
-8.47916031

$$$$
