
 OpenBabel08272217053D

 27 30  0  0  1  0  0  0  0  0999 V2000
  107.9780   52.6760    4.3600 C   0  0  0  0  0  0  0  0  0  0  0  0
  107.7210   51.6280    5.3100 C   0  0  0  0  0  3  0  0  0  0  0  0
  107.6090   52.0770    6.6090 C   0  0  0  0  0  0  0  0  0  0  0  0
  107.8720   53.7640    6.6830 S   0  0  0  0  0  0  0  0  0  0  0  0
  108.0790   53.9140    4.9790 C   0  0  0  0  0  0  0  0  0  0  0  0
  106.9910   52.5030    2.0530 C   0  0  0  0  0  0  0  0  0  0  0  0
  107.1830   52.1460    0.7030 C   0  0  0  0  0  3  0  0  0  0  0  0
  108.4340   51.7460    0.2280 C   0  0  0  0  0  3  0  0  0  0  0  0
  109.5220   51.6950    1.0930 C   0  0  0  0  0  3  0  0  0  0  0  0
  109.3550   52.0310    2.4360 C   0  0  0  0  0  3  0  0  0  0  0  0
  108.1010   52.4340    2.9240 C   0  0  0  0  0  0  0  0  0  0  0  0
  101.5000   54.4120    2.7310 C   0  0  0  0  0  1  0  0  0  0  0  0
  102.8570   53.9930    2.1680 C   0  0  2  0  0  3  0  0  0  0  0  0
  103.1260   52.5110    2.4580 C   0  0  0  0  0  2  0  0  0  0  0  0
  104.5010   52.0750    1.9520 C   0  0  0  0  0  2  0  0  0  0  0  0
  105.6180   52.9610    2.5310 C   0  0  2  0  0  3  0  0  0  0  0  0
  105.3500   54.4460    2.2260 C   0  0  0  0  0  2  0  0  0  0  0  0
  103.9740   54.8770    2.7360 C   0  0  0  0  0  2  0  0  0  0  0  0
  107.3370   51.3000    7.8270 C   0  0  0  0  0  0  0  0  0  0  0  0
  107.1980   49.9040    7.7940 C   0  0  0  0  0  3  0  0  0  0  0  0
  106.9630   49.1790    8.9660 C   0  0  0  0  0  3  0  0  0  0  0  0
  106.8640   49.8400   10.1880 C   0  0  0  0  0  3  0  0  0  0  0  0
  107.0020   51.2240   10.2400 C   0  0  0  0  0  3  0  0  0  0  0  0
  107.2390   51.9490    9.0680 C   0  0  0  0  0  3  0  0  0  0  0  0
  108.3220   55.2480    4.3390 C   0  0  0  0  0  0  0  0  0  0  0  0
  109.4720   55.4380    3.8260 O   0  0  0  0  0  0  0  0  0  0  0  0
  107.3840   56.1030    4.3440 O   0  0  0  0  0  1  0  0  0  0  0  0
  1  5  2  0  0  0  0
  1  2  1  0  0  0  0
  2  3  2  0  0  0  0
  3  4  1  0  0  0  0
  3 19  1  0  0  0  0
  5  4  1  0  0  0  0
  6 11  1  0  0  0  0
  7  6  2  0  0  0  0
  8  7  1  0  0  0  0
  8  9  2  0  0  0  0
  9 10  1  0  0  0  0
 10 11  2  0  0  0  0
 11  1  1  0  0  0  0
 13 14  1  0  0  0  0
 13 12  1  1  0  0  0
 13 18  1  0  0  0  0
 15 14  1  0  0  0  0
 15 16  1  0  0  0  0
 16  6  1  6  0  0  0
 17 16  1  0  0  0  0
 17 18  1  0  0  0  0
 19 24  1  0  0  0  0
 20 19  2  0  0  0  0
 20 21  1  0  0  0  0
 21 22  2  0  0  0  0
 22 23  1  0  0  0  0
 24 23  2  0  0  0  0
 25 27  1  0  0  0  0
 25  5  1  0  0  0  0
 26 25  2  0  0  0  0
M  END
>  <minimizedAffinity>
-8.79406166

$$$$
