
 OpenBabel08272217053D

 27 30  0  0  1  0  0  0  0  0999 V2000
  107.2380   53.2440    4.8320 C   0  0  0  0  0  0  0  0  0  0  0  0
  107.2400   54.4600    5.5990 C   0  0  0  0  0  3  0  0  0  0  0  0
  106.8970   54.2790    6.9220 C   0  0  0  0  0  0  0  0  0  0  0  0
  106.5180   52.6400    7.2220 S   0  0  0  0  0  0  0  0  0  0  0  0
  106.8640   52.1530    5.6060 C   0  0  0  0  0  0  0  0  0  0  0  0
  106.6280   53.2070    2.3930 C   0  0  0  0  0  0  0  0  0  0  0  0
  107.0630   53.0440    1.0620 C   0  0  0  0  0  3  0  0  0  0  0  0
  108.4170   52.8870    0.7550 C   0  0  0  0  0  3  0  0  0  0  0  0
  109.3650   52.8900    1.7720 C   0  0  0  0  0  3  0  0  0  0  0  0
  108.9580   53.0360    3.0970 C   0  0  0  0  0  3  0  0  0  0  0  0
  107.6000   53.1950    3.4170 C   0  0  0  0  0  0  0  0  0  0  0  0
  100.8430   54.0960    2.3550 C   0  0  0  0  0  1  0  0  0  0  0  0
  102.3130   53.9370    1.9720 C   0  0  2  0  0  3  0  0  0  0  0  0
  102.8040   52.5200    2.2960 C   0  0  0  0  0  2  0  0  0  0  0  0
  104.2880   52.3460    1.9710 C   0  0  0  0  0  2  0  0  0  0  0  0
  105.1450   53.4030    2.6890 C   0  0  2  0  0  3  0  0  0  0  0  0
  104.6580   54.8230    2.3500 C   0  0  0  0  0  2  0  0  0  0  0  0
  103.1730   54.9930    2.6780 C   0  0  0  0  0  2  0  0  0  0  0  0
  106.8100   55.2840    7.9920 C   0  0  0  0  0  0  0  0  0  0  0  0
  107.8190   56.2400    8.1870 C   0  0  0  0  0  3  0  0  0  0  0  0
  107.7080   57.2030    9.1950 C   0  0  0  0  0  3  0  0  0  0  0  0
  106.5860   57.2240   10.0200 C   0  0  0  0  0  3  0  0  0  0  0  0
  105.5740   56.2850    9.8380 C   0  0  0  0  0  3  0  0  0  0  0  0
  105.6850   55.3230    8.8290 C   0  0  0  0  0  3  0  0  0  0  0  0
  106.7570   50.7180    5.1850 C   0  0  0  0  0  0  0  0  0  0  0  0
  107.7170   49.9500    5.5160 O   0  0  0  0  0  1  0  0  0  0  0  0
  105.7330   50.3530    4.5300 O   0  0  0  0  0  0  0  0  0  0  0  0
  1  2  1  0  0  0  0
  1  5  2  0  0  0  0
  2  3  2  0  0  0  0
  3  4  1  0  0  0  0
  3 19  1  0  0  0  0
  5  4  1  0  0  0  0
  6 11  1  0  0  0  0
  7  6  2  0  0  0  0
  8  7  1  0  0  0  0
  8  9  2  0  0  0  0
  9 10  1  0  0  0  0
 10 11  2  0  0  0  0
 11  1  1  0  0  0  0
 13 14  1  0  0  0  0
 13 12  1  1  0  0  0
 13 18  1  0  0  0  0
 15 14  1  0  0  0  0
 15 16  1  0  0  0  0
 16  6  1  6  0  0  0
 17 18  1  0  0  0  0
 17 16  1  0  0  0  0
 19 20  2  0  0  0  0
 19 24  1  0  0  0  0
 20 21  1  0  0  0  0
 21 22  2  0  0  0  0
 23 22  1  0  0  0  0
 24 23  2  0  0  0  0
 25 26  1  0  0  0  0
 25  5  1  0  0  0  0
 27 25  2  0  0  0  0
M  END
>  <minimizedAffinity>
-8.42298412

$$$$
